<?xml version="1.0" encoding="UTF-8"?>

<!-- generated on Wed Sep 13 18:38:31 2017 by SUMO netconvert Version 0.22.0D
<?xml version="1.0" encoding="UTF-8"?>

<configuration xmlns:xsi="http://www.w3.org/2001/XMLSchema-instance" xsi:noNamespaceSchemaLocation="http://sumo.dlr.de/xsd/netconvertConfiguration.xsd">

    <input>
        <osm-files value="./cali.map.osm"/>
    </input>

    <output>
        <output-file value="cali.net.xml"/>
    </output>

    <projection>
        <proj.utm value="true"/>
    </projection>

    <edge_removal>
        <remove-edges.by-vclass value="hov,taxi,bus,delivery,truck,tram,rail_urban,rail,rail_electric,motorcycle,bicycle,pedestrian"/>
    </edge_removal>

</configuration>
-->

<net version="0.13" xmlns:xsi="http://www.w3.org/2001/XMLSchema-instance" xsi:noNamespaceSchemaLocation="http://sumo.dlr.de/xsd/net_file.xsd">

    <location netOffset="-374384.46,-3771133.53" convBoundary="0.00,0.00,2623.17,1073.42" origBoundary="-118.361459,34.073553,-118.333027,34.083196" projParameter="+proj=utm +zone=11 +ellps=WGS84 +datum=WGS84 +units=m +no_defs"/>

    <edge id=":122736468_0" function="internal">
        <lane id=":122736468_0_0" index="0" speed="13.89" length="0.10" shape="1604.55,518.22 1604.53,518.22"/>
    </edge>
    <edge id=":122736468_1" function="internal">
        <lane id=":122736468_1_0" index="0" speed="13.89" length="2.41" shape="1604.55,518.22 1603.30,517.41 1602.87,516.59"/>
    </edge>
    <edge id=":122736468_4" function="internal">
        <lane id=":122736468_4_0" index="0" speed="13.89" length="2.41" shape="1602.87,516.59 1603.27,515.76 1604.50,514.92"/>
    </edge>
    <edge id=":122736468_2" function="internal">
        <lane id=":122736468_2_0" index="0" speed="13.89" length="0.10" shape="1604.53,514.92 1604.50,514.92"/>
    </edge>
    <edge id=":122736468_3" function="internal">
        <lane id=":122736468_3_0" index="0" speed="13.89" length="2.41" shape="1604.53,514.92 1605.77,515.74 1606.18,516.57"/>
    </edge>
    <edge id=":122736468_5" function="internal">
        <lane id=":122736468_5_0" index="0" speed="13.89" length="2.41" shape="1606.18,516.57 1605.77,517.39 1604.53,518.22"/>
    </edge>
    <edge id=":122736476_0" function="internal">
        <lane id=":122736476_0_0" index="0" speed="13.89" length="5.01" shape="1069.87,524.73 1069.67,523.38 1069.08,522.41 1068.10,521.84 1066.74,521.66"/>
    </edge>
    <edge id=":122736476_1" function="internal">
        <lane id=":122736476_1_0" index="0" speed="13.89" length="9.50" shape="1069.87,524.73 1069.79,515.23"/>
    </edge>
    <edge id=":122736476_2" function="internal">
        <lane id=":122736476_2_0" index="0" speed="13.89" length="7.14" shape="1069.87,524.73 1070.25,521.92 1071.44,519.91 1073.12,518.88"/>
    </edge>
    <edge id=":122736476_3" function="internal">
        <lane id=":122736476_3_0" index="0" speed="13.89" length="2.41" shape="1069.87,524.73 1070.69,523.49 1071.51,523.07"/>
    </edge>
    <edge id=":122736476_16" function="internal">
        <lane id=":122736476_16_0" index="0" speed="13.89" length="3.20" shape="1073.12,518.88 1073.43,518.69 1076.24,518.28"/>
    </edge>
    <edge id=":122736476_17" function="internal">
        <lane id=":122736476_17_0" index="0" speed="13.89" length="2.41" shape="1071.51,523.07 1072.34,523.48 1073.17,524.71"/>
    </edge>
    <edge id=":122736476_4" function="internal">
        <lane id=":122736476_4_0" index="0" speed="13.89" length="5.01" shape="1076.25,521.58 1074.90,521.78 1073.93,522.37 1073.36,523.34 1073.17,524.71"/>
    </edge>
    <edge id=":122736476_5" function="internal">
        <lane id=":122736476_5_0" index="0" speed="13.89" length="9.51" shape="1076.25,521.58 1066.74,521.66"/>
    </edge>
    <edge id=":122736476_6" function="internal">
        <lane id=":122736476_6_0" index="0" speed="13.89" length="10.32" shape="1076.25,521.58 1073.45,521.19 1071.44,520.01 1070.22,518.02 1069.79,515.23"/>
    </edge>
    <edge id=":122736476_7" function="internal">
        <lane id=":122736476_7_0" index="0" speed="13.89" length="4.82" shape="1076.25,521.58 1075.01,520.76 1074.60,519.94 1075.00,519.11 1076.24,518.28"/>
    </edge>
    <edge id=":122736476_8" function="internal">
        <lane id=":122736476_8_0" index="0" speed="13.89" length="5.02" shape="1073.09,515.19 1073.30,516.55 1073.89,517.52 1074.87,518.09 1076.24,518.28"/>
    </edge>
    <edge id=":122736476_9" function="internal">
        <lane id=":122736476_9_0" index="0" speed="13.89" length="9.51" shape="1073.09,515.19 1073.17,524.71"/>
    </edge>
    <edge id=":122736476_10" function="internal">
        <lane id=":122736476_10_0" index="0" speed="13.89" length="7.14" shape="1073.09,515.19 1072.72,517.99 1071.53,520.01 1069.84,521.05"/>
    </edge>
    <edge id=":122736476_11" function="internal">
        <lane id=":122736476_11_0" index="0" speed="13.89" length="2.41" shape="1073.09,515.19 1072.28,516.44 1071.46,516.86"/>
    </edge>
    <edge id=":122736476_18" function="internal">
        <lane id=":122736476_18_0" index="0" speed="13.89" length="3.18" shape="1069.84,521.05 1069.54,521.23 1066.74,521.66"/>
    </edge>
    <edge id=":122736476_19" function="internal">
        <lane id=":122736476_19_0" index="0" speed="13.89" length="2.41" shape="1071.46,516.86 1070.63,516.46 1069.79,515.23"/>
    </edge>
    <edge id=":122736476_12" function="internal">
        <lane id=":122736476_12_0" index="0" speed="13.89" length="5.02" shape="1066.70,518.36 1068.06,518.15 1069.03,517.56 1069.61,516.59 1069.79,515.23"/>
    </edge>
    <edge id=":122736476_13" function="internal">
        <lane id=":122736476_13_0" index="0" speed="13.89" length="9.54" shape="1066.70,518.36 1076.24,518.28"/>
    </edge>
    <edge id=":122736476_14" function="internal">
        <lane id=":122736476_14_0" index="0" speed="13.89" length="10.35" shape="1066.70,518.36 1069.51,518.73 1071.53,519.91 1072.75,521.90 1073.17,524.71"/>
    </edge>
    <edge id=":122736476_15" function="internal">
        <lane id=":122736476_15_0" index="0" speed="13.89" length="4.82" shape="1066.70,518.36 1067.95,519.17 1068.37,519.99 1067.97,520.82 1066.74,521.66"/>
    </edge>
    <edge id=":122736479_0" function="internal">
        <lane id=":122736479_0_0" index="0" speed="13.89" length="5.05" shape="951.30,526.24 951.09,524.88 950.49,523.91 949.50,523.32 948.13,523.13"/>
    </edge>
    <edge id=":122736479_1" function="internal">
        <lane id=":122736479_1_0" index="0" speed="13.89" length="9.52" shape="951.30,526.24 951.21,516.72"/>
    </edge>
    <edge id=":122736479_2" function="internal">
        <lane id=":122736479_2_0" index="0" speed="13.89" length="7.15" shape="951.30,526.24 951.67,523.44 952.85,521.42 954.54,520.38"/>
    </edge>
    <edge id=":122736479_3" function="internal">
        <lane id=":122736479_3_0" index="0" speed="13.89" length="2.41" shape="951.30,526.24 952.11,524.99 952.93,524.57"/>
    </edge>
    <edge id=":122736479_16" function="internal">
        <lane id=":122736479_16_0" index="0" speed="13.89" length="3.18" shape="954.54,520.38 954.84,520.20 957.64,519.76"/>
    </edge>
    <edge id=":122736479_17" function="internal">
        <lane id=":122736479_17_0" index="0" speed="13.89" length="2.41" shape="952.93,524.57 953.76,524.97 954.60,526.20"/>
    </edge>
    <edge id=":122736479_4" function="internal">
        <lane id=":122736479_4_0" index="0" speed="13.89" length="5.01" shape="957.68,523.06 956.32,523.28 955.35,523.87 954.78,524.84 954.60,526.20"/>
    </edge>
    <edge id=":122736479_5" function="internal">
        <lane id=":122736479_5_0" index="0" speed="13.89" length="9.56" shape="957.68,523.06 948.13,523.13"/>
    </edge>
    <edge id=":122736479_6" function="internal">
        <lane id=":122736479_6_0" index="0" speed="13.89" length="10.35" shape="957.68,523.06 954.87,522.70 952.85,521.52 951.63,519.52 951.21,516.72"/>
    </edge>
    <edge id=":122736479_7" function="internal">
        <lane id=":122736479_7_0" index="0" speed="13.89" length="4.82" shape="957.68,523.06 956.44,522.26 956.01,521.44 956.41,520.61 957.64,519.76"/>
    </edge>
    <edge id=":122736479_8" function="internal">
        <lane id=":122736479_8_0" index="0" speed="13.89" length="5.01" shape="954.51,516.69 954.71,518.05 955.30,519.02 956.28,519.59 957.64,519.76"/>
    </edge>
    <edge id=":122736479_9" function="internal">
        <lane id=":122736479_9_0" index="0" speed="13.89" length="9.51" shape="954.51,516.69 954.60,526.20"/>
    </edge>
    <edge id=":122736479_10" function="internal">
        <lane id=":122736479_10_0" index="0" speed="13.89" length="7.14" shape="954.51,516.69 954.13,519.51 952.94,521.52 951.26,522.53"/>
    </edge>
    <edge id=":122736479_11" function="internal">
        <lane id=":122736479_11_0" index="0" speed="13.89" length="2.41" shape="954.51,516.69 953.69,517.93 952.87,518.35"/>
    </edge>
    <edge id=":122736479_18" function="internal">
        <lane id=":122736479_18_0" index="0" speed="13.89" length="3.22" shape="951.26,522.53 950.94,522.73 948.13,523.13"/>
    </edge>
    <edge id=":122736479_19" function="internal">
        <lane id=":122736479_19_0" index="0" speed="13.89" length="2.41" shape="952.87,518.35 952.04,517.95 951.21,516.72"/>
    </edge>
    <edge id=":122736479_12" function="internal">
        <lane id=":122736479_12_0" index="0" speed="13.89" length="5.01" shape="948.12,519.83 949.48,519.64 950.45,519.05 951.03,518.08 951.21,516.72"/>
    </edge>
    <edge id=":122736479_13" function="internal">
        <lane id=":122736479_13_0" index="0" speed="13.89" length="9.52" shape="948.12,519.83 957.64,519.76"/>
    </edge>
    <edge id=":122736479_14" function="internal">
        <lane id=":122736479_14_0" index="0" speed="13.89" length="10.34" shape="948.12,519.83 950.93,520.23 952.95,521.42 954.17,523.41 954.60,526.20"/>
    </edge>
    <edge id=":122736479_15" function="internal">
        <lane id=":122736479_15_0" index="0" speed="13.89" length="4.82" shape="948.12,519.83 949.36,520.66 949.78,521.48 949.36,522.31 948.13,523.13"/>
    </edge>
    <edge id=":122736482_0" function="internal">
        <lane id=":122736482_0_0" index="0" speed="13.89" length="5.05" shape="848.22,526.41 848.01,525.04 847.41,524.07 846.43,523.49 845.06,523.31"/>
    </edge>
    <edge id=":122736482_1" function="internal">
        <lane id=":122736482_1_0" index="0" speed="13.89" length="9.55" shape="848.22,526.41 848.07,516.87"/>
    </edge>
    <edge id=":122736482_2" function="internal">
        <lane id=":122736482_2_0" index="0" speed="13.89" length="7.12" shape="848.22,526.41 848.59,523.59 849.78,521.57 851.43,520.57"/>
    </edge>
    <edge id=":122736482_3" function="internal">
        <lane id=":122736482_3_0" index="0" speed="13.89" length="2.41" shape="848.22,526.41 849.03,525.17 849.85,524.74"/>
    </edge>
    <edge id=":122736482_16" function="internal">
        <lane id=":122736482_16_0" index="0" speed="13.89" length="3.25" shape="851.43,520.57 851.78,520.36 854.60,519.95"/>
    </edge>
    <edge id=":122736482_17" function="internal">
        <lane id=":122736482_17_0" index="0" speed="13.89" length="2.41" shape="849.85,524.74 850.68,525.15 851.52,526.37"/>
    </edge>
    <edge id=":122736482_4" function="internal">
        <lane id=":122736482_4_0" index="0" speed="13.89" length="5.01" shape="854.60,523.25 853.24,523.45 852.27,524.03 851.70,525.01 851.52,526.37"/>
    </edge>
    <edge id=":122736482_5" function="internal">
        <lane id=":122736482_5_0" index="0" speed="13.89" length="9.54" shape="854.60,523.25 845.06,523.31"/>
    </edge>
    <edge id=":122736482_6" function="internal">
        <lane id=":122736482_6_0" index="0" speed="13.89" length="10.37" shape="854.60,523.25 851.79,522.86 849.77,521.66 848.53,519.66 848.07,516.87"/>
    </edge>
    <edge id=":122736482_7" function="internal">
        <lane id=":122736482_7_0" index="0" speed="13.89" length="4.82" shape="854.60,523.25 853.36,522.43 852.95,521.60 853.36,520.78 854.60,519.95"/>
    </edge>
    <edge id=":122736482_8" function="internal">
        <lane id=":122736482_8_0" index="0" speed="13.89" length="5.12" shape="851.37,516.80 851.60,518.18 852.21,519.17 853.21,519.76 854.60,519.95"/>
    </edge>
    <edge id=":122736482_9" function="internal">
        <lane id=":122736482_9_0" index="0" speed="13.89" length="9.57" shape="851.37,516.80 851.52,526.37"/>
    </edge>
    <edge id=":122736482_10" function="internal">
        <lane id=":122736482_10_0" index="0" speed="13.89" length="7.17" shape="851.37,516.80 851.02,519.62 849.85,521.65 848.16,522.69"/>
    </edge>
    <edge id=":122736482_11" function="internal">
        <lane id=":122736482_11_0" index="0" speed="13.89" length="2.41" shape="851.37,516.80 850.57,518.06 849.75,518.48"/>
    </edge>
    <edge id=":122736482_18" function="internal">
        <lane id=":122736482_18_0" index="0" speed="13.89" length="3.19" shape="848.16,522.69 847.87,522.88 845.06,523.31"/>
    </edge>
    <edge id=":122736482_19" function="internal">
        <lane id=":122736482_19_0" index="0" speed="13.89" length="2.41" shape="849.75,518.48 848.92,518.09 848.07,516.87"/>
    </edge>
    <edge id=":122736482_12" function="internal">
        <lane id=":122736482_12_0" index="0" speed="13.89" length="5.01" shape="845.02,520.01 846.38,519.80 847.34,519.21 847.90,518.23 848.07,516.87"/>
    </edge>
    <edge id=":122736482_13" function="internal">
        <lane id=":122736482_13_0" index="0" speed="13.89" length="9.58" shape="845.02,520.01 854.60,519.95"/>
    </edge>
    <edge id=":122736482_14" function="internal">
        <lane id=":122736482_14_0" index="0" speed="13.89" length="10.37" shape="845.02,520.01 847.83,520.38 849.86,521.57 851.09,523.56 851.52,526.37"/>
    </edge>
    <edge id=":122736482_15" function="internal">
        <lane id=":122736482_15_0" index="0" speed="13.89" length="4.82" shape="845.02,520.01 846.27,520.82 846.69,521.64 846.29,522.47 845.06,523.31"/>
    </edge>
    <edge id=":122736484_0" function="internal">
        <lane id=":122736484_0_0" index="0" speed="13.89" length="5.08" shape="755.49,527.44 755.27,526.07 754.67,525.09 753.68,524.51 752.30,524.31"/>
    </edge>
    <edge id=":122736484_1" function="internal">
        <lane id=":122736484_1_0" index="0" speed="13.89" length="9.54" shape="755.49,527.44 755.38,517.90"/>
    </edge>
    <edge id=":122736484_2" function="internal">
        <lane id=":122736484_2_0" index="0" speed="13.89" length="10.34" shape="755.49,527.44 755.85,524.63 757.02,522.61 759.01,521.39 761.81,520.95"/>
    </edge>
    <edge id=":122736484_3" function="internal">
        <lane id=":122736484_3_0" index="0" speed="13.89" length="4.82" shape="755.49,527.44 756.29,526.19 757.11,525.77 757.94,526.17 758.79,527.39"/>
    </edge>
    <edge id=":122736484_4" function="internal">
        <lane id=":122736484_4_0" index="0" speed="13.89" length="5.00" shape="761.85,524.25 760.49,524.46 759.53,525.06 758.96,526.03 758.79,527.39"/>
    </edge>
    <edge id=":122736484_5" function="internal">
        <lane id=":122736484_5_0" index="0" speed="13.89" length="9.55" shape="761.85,524.25 752.30,524.31"/>
    </edge>
    <edge id=":122736484_6" function="internal">
        <lane id=":122736484_6_0" index="0" speed="13.89" length="7.18" shape="761.85,524.25 759.04,523.88 757.02,522.70 755.98,520.99"/>
    </edge>
    <edge id=":122736484_7" function="internal">
        <lane id=":122736484_7_0" index="0" speed="13.89" length="2.41" shape="761.85,524.25 760.60,523.44 760.18,522.62"/>
    </edge>
    <edge id=":122736484_16" function="internal">
        <lane id=":122736484_16_0" index="0" speed="13.89" length="3.17" shape="755.98,520.99 755.80,520.71 755.38,517.90"/>
    </edge>
    <edge id=":122736484_17" function="internal">
        <lane id=":122736484_17_0" index="0" speed="13.89" length="2.41" shape="760.18,522.62 760.58,521.79 761.81,520.95"/>
    </edge>
    <edge id=":122736484_8" function="internal">
        <lane id=":122736484_8_0" index="0" speed="13.89" length="5.01" shape="758.68,517.87 758.88,519.23 759.47,520.20 760.45,520.77 761.81,520.95"/>
    </edge>
    <edge id=":122736484_9" function="internal">
        <lane id=":122736484_9_0" index="0" speed="13.89" length="9.52" shape="758.68,517.87 758.79,527.39"/>
    </edge>
    <edge id=":122736484_10" function="internal">
        <lane id=":122736484_10_0" index="0" speed="13.89" length="10.36" shape="758.68,517.87 758.30,520.69 757.11,522.70 755.11,523.91 752.30,524.31"/>
    </edge>
    <edge id=":122736484_11" function="internal">
        <lane id=":122736484_11_0" index="0" speed="13.89" length="4.82" shape="758.68,517.87 757.86,519.12 757.04,519.54 756.21,519.13 755.38,517.90"/>
    </edge>
    <edge id=":122736484_12" function="internal">
        <lane id=":122736484_12_0" index="0" speed="13.89" length="5.01" shape="752.29,521.01 753.65,520.82 754.62,520.23 755.20,519.26 755.38,517.90"/>
    </edge>
    <edge id=":122736484_13" function="internal">
        <lane id=":122736484_13_0" index="0" speed="13.89" length="9.52" shape="752.29,521.01 761.81,520.95"/>
    </edge>
    <edge id=":122736484_14" function="internal">
        <lane id=":122736484_14_0" index="0" speed="13.89" length="7.14" shape="752.29,521.01 755.10,521.41 757.12,522.60 758.15,524.28"/>
    </edge>
    <edge id=":122736484_15" function="internal">
        <lane id=":122736484_15_0" index="0" speed="13.89" length="2.41" shape="752.29,521.01 753.53,521.84 753.94,522.66"/>
    </edge>
    <edge id=":122736484_18" function="internal">
        <lane id=":122736484_18_0" index="0" speed="13.89" length="3.21" shape="758.15,524.28 758.35,524.60 758.79,527.39"/>
    </edge>
    <edge id=":122736484_19" function="internal">
        <lane id=":122736484_19_0" index="0" speed="13.89" length="2.41" shape="753.94,522.66 753.53,523.49 752.30,524.31"/>
    </edge>
    <edge id=":122736502_0" function="internal">
        <lane id=":122736502_0_0" index="0" speed="13.89" length="4.82" shape="0.03,531.15 -1.22,530.35 -1.65,529.54 -1.25,528.70 -0.03,527.85"/>
    </edge>
    <edge id=":122865672_0" function="internal">
        <lane id=":122865672_0_0" index="0" speed="13.89" length="4.82" shape="1063.59,0.02 1064.40,-1.23 1065.22,-1.65 1066.05,-1.25 1066.89,-0.02"/>
    </edge>
    <edge id=":122865676_0" function="internal">
        <lane id=":122865676_0_0" index="0" speed="13.89" length="5.06" shape="1071.68,745.92 1071.46,744.54 1070.85,743.56 1069.87,742.98 1068.52,742.80"/>
    </edge>
    <edge id=":122865676_1" function="internal">
        <lane id=":122865676_1_0" index="0" speed="13.89" length="9.57" shape="1071.68,745.92 1071.54,736.36"/>
    </edge>
    <edge id=":122865676_2" function="internal">
        <lane id=":122865676_2_0" index="0" speed="13.89" length="10.40" shape="1071.68,745.92 1072.02,743.09 1073.19,741.06 1075.19,739.83 1078.02,739.41"/>
    </edge>
    <edge id=":122865676_3" function="internal">
        <lane id=":122865676_3_0" index="0" speed="13.89" length="4.82" shape="1071.68,745.92 1072.48,744.67 1073.29,744.24 1074.13,744.63 1074.98,745.85"/>
    </edge>
    <edge id=":122865676_4" function="internal">
        <lane id=":122865676_4_0" index="0" speed="13.89" length="5.02" shape="1078.04,742.71 1076.67,742.91 1075.71,743.50 1075.15,744.48 1074.98,745.85"/>
    </edge>
    <edge id=":122865676_5" function="internal">
        <lane id=":122865676_5_0" index="0" speed="13.89" length="9.52" shape="1078.04,742.71 1068.52,742.80"/>
    </edge>
    <edge id=":122865676_6" function="internal">
        <lane id=":122865676_6_0" index="0" speed="13.89" length="7.16" shape="1078.04,742.71 1075.21,742.32 1073.19,741.14 1072.16,739.46"/>
    </edge>
    <edge id=":122865676_7" function="internal">
        <lane id=":122865676_7_0" index="0" speed="13.89" length="2.41" shape="1078.04,742.71 1076.79,741.89 1076.38,741.07"/>
    </edge>
    <edge id=":122865676_16" function="internal">
        <lane id=":122865676_16_0" index="0" speed="13.89" length="3.20" shape="1072.16,739.46 1071.96,739.15 1071.54,736.36"/>
    </edge>
    <edge id=":122865676_17" function="internal">
        <lane id=":122865676_17_0" index="0" speed="13.89" length="2.41" shape="1076.38,741.07 1076.78,740.24 1078.02,739.41"/>
    </edge>
    <edge id=":122865676_8" function="internal">
        <lane id=":122865676_8_0" index="0" speed="13.89" length="5.04" shape="1074.84,736.33 1075.05,737.68 1075.65,738.65 1076.64,739.22 1078.02,739.41"/>
    </edge>
    <edge id=":122865676_9" function="internal">
        <lane id=":122865676_9_0" index="0" speed="13.89" length="9.52" shape="1074.84,736.33 1074.98,745.85"/>
    </edge>
    <edge id=":122865676_10" function="internal">
        <lane id=":122865676_10_0" index="0" speed="13.89" length="10.30" shape="1074.84,736.33 1074.46,739.13 1073.28,741.14 1071.30,742.36 1068.52,742.80"/>
    </edge>
    <edge id=":122865676_11" function="internal">
        <lane id=":122865676_11_0" index="0" speed="13.89" length="4.82" shape="1074.84,736.33 1074.02,737.57 1073.20,737.99 1072.37,737.59 1071.54,736.36"/>
    </edge>
    <edge id=":122865676_12" function="internal">
        <lane id=":122865676_12_0" index="0" speed="13.89" length="5.00" shape="1068.47,739.50 1069.82,739.29 1070.78,738.69 1071.36,737.72 1071.54,736.36"/>
    </edge>
    <edge id=":122865676_13" function="internal">
        <lane id=":122865676_13_0" index="0" speed="13.89" length="9.55" shape="1068.47,739.50 1078.02,739.41"/>
    </edge>
    <edge id=":122865676_14" function="internal">
        <lane id=":122865676_14_0" index="0" speed="13.89" length="7.15" shape="1068.47,739.50 1071.27,739.86 1073.28,741.04 1074.34,742.74"/>
    </edge>
    <edge id=":122865676_15" function="internal">
        <lane id=":122865676_15_0" index="0" speed="13.89" length="2.41" shape="1068.47,739.50 1069.72,740.31 1070.14,741.13"/>
    </edge>
    <edge id=":122865676_18" function="internal">
        <lane id=":122865676_18_0" index="0" speed="13.89" length="3.20" shape="1074.34,742.74 1074.52,743.04 1074.98,745.85"/>
    </edge>
    <edge id=":122865676_19" function="internal">
        <lane id=":122865676_19_0" index="0" speed="13.89" length="2.41" shape="1070.14,741.13 1069.74,741.96 1068.52,742.80"/>
    </edge>
    <edge id=":122865679_0" function="internal">
        <lane id=":122865679_0_0" index="0" speed="13.89" length="4.82" shape="1078.72,918.53 1077.93,919.79 1077.11,920.22 1076.28,919.82 1075.42,918.60"/>
    </edge>
    <edge id=":122977344_0" function="internal">
        <lane id=":122977344_0_0" index="0" speed="13.89" length="4.82" shape="948.72,2.55 949.54,1.31 950.37,0.90 951.19,1.31 952.02,2.55"/>
    </edge>
    <edge id=":122977346_0" function="internal">
        <lane id=":122977346_0_0" index="0" speed="13.89" length="4.82" shape="841.17,3.34 841.98,2.10 842.80,1.68 843.63,2.08 844.47,3.31"/>
    </edge>
    <edge id=":122977348_0" function="internal">
        <lane id=":122977348_0_0" index="0" speed="13.89" length="4.82" shape="750.51,5.19 751.32,3.94 752.14,3.52 752.97,3.92 753.81,5.15"/>
    </edge>
    <edge id=":123000478_0" function="internal">
        <lane id=":123000478_0_0" index="0" speed="13.89" length="0.10" shape="949.35,288.46 949.35,288.45"/>
    </edge>
    <edge id=":123000478_1" function="internal">
        <lane id=":123000478_1_0" index="0" speed="13.89" length="2.41" shape="949.35,288.46 950.16,287.21 950.99,286.79"/>
    </edge>
    <edge id=":123000478_4" function="internal">
        <lane id=":123000478_4_0" index="0" speed="13.89" length="2.41" shape="950.99,286.79 951.81,287.20 952.65,288.43"/>
    </edge>
    <edge id=":123000478_2" function="internal">
        <lane id=":123000478_2_0" index="0" speed="13.89" length="0.10" shape="952.65,288.44 952.65,288.43"/>
    </edge>
    <edge id=":123000478_3" function="internal">
        <lane id=":123000478_3_0" index="0" speed="13.89" length="2.41" shape="952.65,288.44 951.83,289.68 951.00,290.09"/>
    </edge>
    <edge id=":123000478_5" function="internal">
        <lane id=":123000478_5_0" index="0" speed="13.89" length="2.41" shape="951.00,290.09 950.18,289.68 949.35,288.45"/>
    </edge>
    <edge id=":123000482_0" function="internal">
        <lane id=":123000482_0_0" index="0" speed="13.89" length="0.10" shape="753.57,290.44 753.57,290.44"/>
    </edge>
    <edge id=":123000482_1" function="internal">
        <lane id=":123000482_1_0" index="0" speed="13.89" length="2.41" shape="753.57,290.44 754.39,289.19 755.21,288.77"/>
    </edge>
    <edge id=":123000482_4" function="internal">
        <lane id=":123000482_4_0" index="0" speed="13.89" length="2.41" shape="755.21,288.77 756.04,289.18 756.87,290.41"/>
    </edge>
    <edge id=":123000482_2" function="internal">
        <lane id=":123000482_2_0" index="0" speed="13.89" length="0.10" shape="756.87,290.41 756.87,290.41"/>
    </edge>
    <edge id=":123000482_3" function="internal">
        <lane id=":123000482_3_0" index="0" speed="13.89" length="2.41" shape="756.87,290.41 756.06,291.66 755.24,292.08"/>
    </edge>
    <edge id=":123000482_5" function="internal">
        <lane id=":123000482_5_0" index="0" speed="13.89" length="2.41" shape="755.24,292.08 754.41,291.67 753.57,290.44"/>
    </edge>
    <edge id=":123031712_0" function="internal">
        <lane id=":123031712_0_0" index="0" speed="13.89" length="4.82" shape="1.62,751.12 0.38,750.31 -0.04,749.48 0.37,748.66 1.60,747.82"/>
    </edge>
    <edge id=":123226170_0" function="internal">
        <lane id=":123226170_0_0" index="0" speed="13.89" length="5.01" shape="850.95,747.82 850.75,746.46 850.15,745.50 849.18,744.93 847.81,744.76"/>
    </edge>
    <edge id=":123226170_1" function="internal">
        <lane id=":123226170_1_0" index="0" speed="13.89" length="9.51" shape="850.95,747.82 850.86,738.31"/>
    </edge>
    <edge id=":123226170_2" function="internal">
        <lane id=":123226170_2_0" index="0" speed="13.89" length="7.14" shape="850.95,747.82 851.33,745.00 852.52,742.99 854.19,741.97"/>
    </edge>
    <edge id=":123226170_3" function="internal">
        <lane id=":123226170_3_0" index="0" speed="13.89" length="2.41" shape="850.95,747.82 851.77,746.58 852.59,746.16"/>
    </edge>
    <edge id=":123226170_16" function="internal">
        <lane id=":123226170_16_0" index="0" speed="13.89" length="3.21" shape="854.19,741.97 854.52,741.77 857.32,741.36"/>
    </edge>
    <edge id=":123226170_17" function="internal">
        <lane id=":123226170_17_0" index="0" speed="13.89" length="2.41" shape="852.59,746.16 853.42,746.56 854.25,747.80"/>
    </edge>
    <edge id=":123226170_4" function="internal">
        <lane id=":123226170_4_0" index="0" speed="13.89" length="5.02" shape="857.33,744.66 855.98,744.86 855.01,745.45 854.43,746.43 854.25,747.80"/>
    </edge>
    <edge id=":123226170_5" function="internal">
        <lane id=":123226170_5_0" index="0" speed="13.89" length="9.52" shape="857.33,744.66 847.81,744.76"/>
    </edge>
    <edge id=":123226170_6" function="internal">
        <lane id=":123226170_6_0" index="0" speed="13.89" length="10.32" shape="857.33,744.66 854.53,744.27 852.52,743.08 851.29,741.10 850.86,738.31"/>
    </edge>
    <edge id=":123226170_7" function="internal">
        <lane id=":123226170_7_0" index="0" speed="13.89" length="4.82" shape="857.33,744.66 856.09,743.84 855.68,743.02 856.09,742.19 857.32,741.36"/>
    </edge>
    <edge id=":123226170_8" function="internal">
        <lane id=":123226170_8_0" index="0" speed="13.89" length="5.03" shape="854.16,738.27 854.37,739.63 854.97,740.59 855.95,741.17 857.32,741.36"/>
    </edge>
    <edge id=":123226170_9" function="internal">
        <lane id=":123226170_9_0" index="0" speed="13.89" length="9.53" shape="854.16,738.27 854.25,747.80"/>
    </edge>
    <edge id=":123226170_10" function="internal">
        <lane id=":123226170_10_0" index="0" speed="13.89" length="7.15" shape="854.16,738.27 853.79,741.07 852.61,743.08 850.91,744.13"/>
    </edge>
    <edge id=":123226170_11" function="internal">
        <lane id=":123226170_11_0" index="0" speed="13.89" length="2.41" shape="854.16,738.27 853.35,739.52 852.53,739.94"/>
    </edge>
    <edge id=":123226170_18" function="internal">
        <lane id=":123226170_18_0" index="0" speed="13.89" length="3.19" shape="850.91,744.13 850.62,744.31 847.81,744.76"/>
    </edge>
    <edge id=":123226170_19" function="internal">
        <lane id=":123226170_19_0" index="0" speed="13.89" length="2.41" shape="852.53,739.94 851.70,739.54 850.86,738.31"/>
    </edge>
    <edge id=":123226170_12" function="internal">
        <lane id=":123226170_12_0" index="0" speed="13.89" length="5.03" shape="847.76,741.46 849.13,741.24 850.10,740.64 850.68,739.67 850.86,738.31"/>
    </edge>
    <edge id=":123226170_13" function="internal">
        <lane id=":123226170_13_0" index="0" speed="13.89" length="9.56" shape="847.76,741.46 857.32,741.36"/>
    </edge>
    <edge id=":123226170_14" function="internal">
        <lane id=":123226170_14_0" index="0" speed="13.89" length="10.37" shape="847.76,741.46 850.58,741.81 852.60,742.99 853.83,744.98 854.25,747.80"/>
    </edge>
    <edge id=":123226170_15" function="internal">
        <lane id=":123226170_15_0" index="0" speed="13.89" length="4.82" shape="847.76,741.46 849.01,742.26 849.43,743.08 849.04,743.91 847.81,744.76"/>
    </edge>
    <edge id=":123226173_0" function="internal">
        <lane id=":123226173_0_0" index="0" speed="13.89" length="4.82" shape="855.45,919.58 854.64,920.82 853.82,921.24 852.99,920.83 852.15,919.60"/>
    </edge>
    <edge id=":123368159_0" function="internal">
        <lane id=":123368159_0_0" index="0" speed="13.89" length="4.82" shape="958.93,919.35 958.12,920.59 957.30,921.01 956.47,920.61 955.63,919.38"/>
    </edge>
    <edge id=":123505960_0" function="internal">