<?xml version="1.0" encoding="UTF-8"?>

<!-- generated on Tue Jul 12 15:01:23 2016 by SUMO netconvert Version 0.21.0
<?xml version="1.0" encoding="UTF-8"?>

<configuration xmlns:xsi="http://www.w3.org/2001/XMLSchema-instance" xsi:noNamespaceSchemaLocation="http://sumo-sim.org/xsd/netconvertConfiguration.xsd">

    <input>
        <sumo-net-file value="/home/aime/Downloads/veins-veins-vadd/examples/veins/MynetTLS.net.xml"/>
    </input>

    <output>
        <output-file value="/home/aime/Downloads/veins-veins-vadd/examples/veins/MynetTLS.net.xml"/>
    </output>

    <tls_building>
        <tls.set value="4/6"/>
    </tls_building>

    <processing>
        <no-turnarounds value="true"/>
        <offset.disable-normalization value="true"/>
    </processing>

</configuration>
-->

<net version="0.13" xmlns:xsi="http://www.w3.org/2001/XMLSchema-instance" xsi:noNamespaceSchemaLocation="http://sumo-sim.org/xsd/net_file.xsd">

    <location netOffset="0.00,0.00" convBoundary="0.00,0.00,400.00,600.00" origBoundary="0.00,0.00,400.00,600.00" projParameter="!"/>

    <edge id=":0/0_0" function="internal">
        <lane id=":0/0_0_0" index="0" speed="13.90" length="23.87" shape="-8.25,9.85 -7.12,1.93 -3.73,-3.73 1.93,-7.12 9.85,-8.25"/>
        <lane id=":0/0_0_1" index="1" speed="13.90" length="23.87" shape="-4.95,9.85 -4.03,3.37 -1.25,-1.25 3.37,-4.03 9.85,-4.95"/>
        <lane id=":0/0_0_2" index="2" speed="13.90" length="23.87" shape="-1.65,9.85 -0.93,4.82 1.22,1.22 4.82,-0.93 9.85,-1.65"/>
    </edge>
    <edge id=":0/0_3" function="internal">
        <lane id=":0/0_3_0" index="0" speed="13.90" length="2.41" shape="-1.65,9.85 -0.83,8.61 -0.00,8.20"/>
    </edge>
    <edge id=":0/0_8" function="internal">
        <lane id=":0/0_8_0" index="0" speed="13.90" length="2.41" shape="-0.00,8.20 0.82,8.61 1.65,9.85"/>
    </edge>
    <edge id=":0/0_4" function="internal">
        <lane id=":0/0_4_0" index="0" speed="13.90" length="7.90" shape="9.85,8.25 9.15,8.35 8.65,8.65 8.35,9.15 8.25,9.85"/>
        <lane id=":0/0_4_1" index="1" speed="13.90" length="7.90" shape="9.85,4.95 7.71,5.26 6.17,6.17 5.26,7.71 4.95,9.85"/>
        <lane id=":0/0_4_2" index="2" speed="13.90" length="7.90" shape="9.85,1.65 6.26,2.16 3.70,3.70 2.16,6.26 1.65,9.85"/>
    </edge>
    <edge id=":0/0_7" function="internal">
        <lane id=":0/0_7_0" index="0" speed="13.90" length="2.41" shape="9.85,1.65 8.61,0.83 8.20,0.00"/>
    </edge>
    <edge id=":0/0_9" function="internal">
        <lane id=":0/0_9_0" index="0" speed="13.90" length="2.41" shape="8.20,0.00 8.61,-0.82 9.85,-1.65"/>
    </edge>
    <edge id=":0/1_0" function="internal">
        <lane id=":0/1_0_0" index="0" speed="13.90" length="22.70" shape="-8.25,111.35 -8.25,104.61 -8.25,100.00 -8.25,95.39 -8.25,88.65"/>
        <lane id=":0/1_0_1" index="1" speed="13.90" length="22.70" shape="-4.95,111.35 -4.95,104.61 -4.95,100.00 -4.95,95.39 -4.95,88.65"/>
        <lane id=":0/1_0_2" index="2" speed="13.90" length="22.70" shape="-1.65,111.35 -1.65,104.61 -1.65,100.00 -1.65,95.39 -1.65,88.65"/>
    </edge>
    <edge id=":0/1_3" function="internal">
        <lane id=":0/1_3_0" index="0" speed="13.90" length="11.65" shape="-1.65,111.35 -0.84,104.22 1.60,99.12"/>
        <lane id=":0/1_3_1" index="1" speed="13.90" length="11.65" shape="-1.65,111.35 -0.84,105.66 1.60,101.60"/>
    </edge>
    <edge id=":0/1_5" function="internal">
        <lane id=":0/1_5_0" index="0" speed="13.90" length="2.41" shape="-1.65,111.35 -0.83,110.11 -0.00,109.70"/>
    </edge>
    <edge id=":0/1_15" function="internal">
        <lane id=":0/1_15_0" index="0" speed="13.90" length="10.86" shape="1.60,99.12 5.66,96.07 11.35,95.05"/>
    </edge>
    <edge id=":0/1_16" function="internal">
        <lane id=":0/1_16_0" index="0" speed="13.90" length="10.48" shape="1.60,101.60 5.66,99.16 11.35,98.35"/>
    </edge>
    <edge id=":0/1_17" function="internal">
        <lane id=":0/1_17_0" index="0" speed="13.90" length="2.41" shape="-0.00,109.70 0.82,110.11 1.65,111.35"/>
    </edge>
    <edge id=":0/1_6" function="internal">
        <lane id=":0/1_6_0" index="0" speed="13.90" length="5.00" shape="11.35,108.25 9.99,108.44 9.02,109.03 8.44,109.99 8.25,111.35"/>
    </edge>
    <edge id=":0/1_7" function="internal">
        <lane id=":0/1_7_0" index="0" speed="13.90" length="3.13" shape="11.35,104.95 8.25,104.51"/>
        <lane id=":0/1_7_1" index="1" speed="13.90" length="3.13" shape="11.35,101.65 8.25,101.21"/>
    </edge>
    <edge id=":0/1_9" function="internal">
        <lane id=":0/1_9_0" index="0" speed="13.90" length="2.41" shape="11.35,101.65 10.11,100.82 9.70,100.00"/>
    </edge>
    <edge id=":0/1_18" function="internal">
        <lane id=":0/1_18_0" index="0" speed="13.90" length="23.16" shape="8.25,104.51 4.22,103.93 -0.88,100.88 -3.93,95.78 -4.95,88.65"/>
    </edge>
    <edge id=":0/1_19" function="internal">
        <lane id=":0/1_19_0" index="0" speed="13.90" length="17.83" shape="8.25,101.21 5.66,100.84 1.60,98.40 -0.84,94.34 -1.65,88.65"/>
    </edge>
    <edge id=":0/1_20" function="internal">
        <lane id=":0/1_20_0" index="0" speed="13.90" length="2.41" shape="9.70,100.00 10.11,99.17 11.35,98.35"/>
    </edge>
    <edge id=":0/1_10" function="internal">
        <lane id=":0/1_10_0" index="0" speed="13.90" length="5.00" shape="8.25,88.65 8.44,90.01 9.02,90.97 9.99,91.56 11.35,91.75"/>
    </edge>
    <edge id=":0/1_11" function="internal">
        <lane id=":0/1_11_0" index="0" speed="13.90" length="22.70" shape="8.25,88.65 8.25,95.39 8.25,100.00 8.25,104.61 8.25,111.35"/>
        <lane id=":0/1_11_1" index="1" speed="13.90" length="22.70" shape="4.95,88.65 4.95,95.39 4.95,100.00 4.95,104.61 4.95,111.35"/>
        <lane id=":0/1_11_2" index="2" speed="13.90" length="22.70" shape="1.65,88.65 1.65,95.39 1.65,100.00 1.65,104.61 1.65,111.35"/>
    </edge>
    <edge id=":0/1_14" function="internal">
        <lane id=":0/1_14_0" index="0" speed="13.90" length="2.41" shape="1.65,88.65 0.83,89.89 0.00,90.30"/>
    </edge>
    <edge id=":0/1_21" function="internal">
        <lane id=":0/1_21_0" index="0" speed="13.90" length="2.41" shape="0.00,90.30 -0.82,89.89 -1.65,88.65"/>
    </edge>
    <edge id=":0/2_0" function="internal">
        <lane id=":0/2_0_0" index="0" speed="13.90" length="22.70" shape="-8.25,211.35 -8.25,204.61 -8.25,200.00 -8.25,195.39 -8.25,188.65"/>
        <lane id=":0/2_0_1" index="1" speed="13.90" length="22.70" shape="-4.95,211.35 -4.95,204.61 -4.95,200.00 -4.95,195.39 -4.95,188.65"/>
        <lane id=":0/2_0_2" index="2" speed="13.90" length="22.70" shape="-1.65,211.35 -1.65,204.61 -1.65,200.00 -1.65,195.39 -1.65,188.65"/>
    </edge>
    <edge id=":0/2_3" function="internal">
        <lane id=":0/2_3_0" index="0" speed="13.90" length="11.65" shape="-1.65,211.35 -0.84,204.22 1.60,199.12"/>
        <lane id=":0/2_3_1" index="1" speed="13.90" length="11.65" shape="-1.65,211.35 -0.84,205.66 1.60,201.60"/>
    </edge>
    <edge id=":0/2_5" function="internal">
        <lane id=":0/2_5_0" index="0" speed="13.90" length="2.41" shape="-1.65,211.35 -0.83,210.11 -0.00,209.70"/>
    </edge>
    <edge id=":0/2_15" function="internal">
        <lane id=":0/2_15_0" index="0" speed="13.90" length="10.86" shape="1.60,199.12 5.66,196.07 11.35,195.05"/>
    </edge>
    <edge id=":0/2_16" function="internal">
        <lane id=":0/2_16_0" index="0" speed="13.90" length="10.48" shape="1.60,201.60 5.66,199.16 11.35,198.35"/>
    </edge>
    <edge id=":0/2_17" function="internal">
        <lane id=":0/2_17_0" index="0" speed="13.90" length="2.41" shape="-0.00,209.70 0.82,210.11 1.65,211.35"/>
    </edge>
    <edge id=":0/2_6" function="internal">
        <lane id=":0/2_6_0" index="0" speed="13.90" length="5.00" shape="11.35,208.25 9.99,208.44 9.02,209.03 8.44,209.99 8.25,211.35"/>
    </edge>
    <edge id=":0/2_7" function="internal">
        <lane id=":0/2_7_0" index="0" speed="13.90" length="3.13" shape="11.35,204.95 8.25,204.51"/>
        <lane id=":0/2_7_1" index="1" speed="13.90" length="3.13" shape="11.35,201.65 8.25,201.21"/>
    </edge>
    <edge id=":0/2_9" function="internal">
        <lane id=":0/2_9_0" index="0" speed="13.90" length="2.41" shape="11.35,201.65 10.11,200.83 9.70,200.00"/>
    </edge>
    <edge id=":0/2_18" function="internal">
        <lane id=":0/2_18_0" index="0" speed="13.90" length="23.16" shape="8.25,204.51 4.22,203.93 -0.88,200.87 -3.93,195.78 -4.95,188.65"/>
    </edge>
    <edge id=":0/2_19" function="internal">
        <lane id=":0/2_19_0" index="0" speed="13.90" length="17.83" shape="8.25,201.21 5.66,200.84 1.60,198.40 -0.84,194.34 -1.65,188.65"/>
    </edge>
    <edge id=":0/2_20" function="internal">
        <lane id=":0/2_20_0" index="0" speed="13.90" length="2.41" shape="9.70,200.00 10.11,199.18 11.35,198.35"/>
    </edge>
    <edge id=":0/2_10" function="internal">
        <lane id=":0/2_10_0" index="0" speed="13.90" length="5.00" shape="8.25,188.65 8.44,190.01 9.02,190.97 9.99,191.56 11.35,191.75"/>
    </edge>
    <edge id=":0/2_11" function="internal">
        <lane id=":0/2_11_0" index="0" speed="13.90" length="22.70" shape="8.25,188.65 8.25,195.39 8.25,200.00 8.25,204.61 8.25,211.35"/>
        <lane id=":0/2_11_1" index="1" speed="13.90" length="22.70" shape="4.95,188.65 4.95,195.39 4.95,200.00 4.95,204.61 4.95,211.35"/>
        <lane id=":0/2_11_2" index="2" speed="13.90" length="22.70" shape="1.65,188.65 1.65,195.39 1.65,200.00 1.65,204.61 1.65,211.35"/>
    </edge>
    <edge id=":0/2_14" function="internal">
        <lane id=":0/2_14_0" index="0" speed="13.90" length="2.41" shape="1.65,188.65 0.83,189.89 0.00,190.30"/>
    </edge>
    <edge id=":0/2_21" function="internal">
        <lane id=":0/2_21_0" index="0" speed="13.90" length="2.41" shape="0.00,190.30 -0.82,189.89 -1.65,188.65"/>
    </edge>
    <edge id=":0/3_0" function="internal">
        <lane id=":0/3_0_0" index="0" speed="13.90" length="22.70" shape="-8.25,311.35 -8.25,304.61 -8.25,300.00 -8.25,295.39 -8.25,288.65"/>
        <lane id=":0/3_0_1" index="1" speed="13.90" length="22.70" shape="-4.95,311.35 -4.95,304.61 -4.95,300.00 -4.95,295.39 -4.95,288.65"/>
        <lane id=":0/3_0_2" index="2" speed="13.90" length="22.70" shape="-1.65,311.35 -1.65,304.61 -1.65,300.00 -1.65,295.39 -1.65,288.65"/>
    </edge>
    <edge id=":0/3_3" function="internal">
        <lane id=":0/3_3_0" index="0" speed="13.90" length="11.65" shape="-1.65,311.35 -0.84,304.22 1.60,299.12"/>
        <lane id=":0/3_3_1" index="1" speed="13.90" length="11.65" shape="-1.65,311.35 -0.84,305.66 1.60,301.60"/>
    </edge>
    <edge id=":0/3_5" function="internal">
        <lane id=":0/3_5_0" index="0" speed="13.90" length="2.41" shape="-1.65,311.35 -0.83,310.11 -0.00,309.70"/>
    </edge>
    <edge id=":0/3_15" function="internal">
        <lane id=":0/3_15_0" index="0" speed="13.90" length="10.86" shape="1.60,299.12 5.66,296.07 11.35,295.05"/>
    </edge>
    <edge id=":0/3_16" function="internal">
        <lane id=":0/3_16_0" index="0" speed="13.90" length="10.48" shape="1.60,301.60 5.66,299.16 11.35,298.35"/>
    </edge>
    <edge id=":0/3_17" function="internal">
        <lane id=":0/3_17_0" index="0" speed="13.90" length="2.41" shape="-0.00,309.70 0.82,310.11 1.65,311.35"/>
    </edge>
    <edge id=":0/3_6" function="internal">
        <lane id=":0/3_6_0" index="0" speed="13.90" length="5.00" shape="11.35,308.25 9.99,308.44 9.02,309.02 8.44,309.99 8.25,311.35"/>
    </edge>
    <edge id=":0/3_7" function="internal">
        <lane id=":0/3_7_0" index="0" speed="13.90" length="3.13" shape="11.35,304.95 8.25,304.51"/>
        <lane id=":0/3_7_1" index="1" speed="13.90" length="3.13" shape="11.35,301.65 8.25,301.21"/>
    </edge>
    <edge id=":0/3_9" function="internal">
        <lane id=":0/3_9_0" index="0" speed="13.90" length="2.41" shape="11.35,301.65 10.11,300.83 9.70,300.00"/>
    </edge>
    <edge id=":0/3_18" function="internal">
        <lane id=":0/3_18_0" index="0" speed="13.90" length="23.16" shape="8.25,304.51 4.22,303.93 -0.88,300.88 -3.93,295.78 -4.95,288.65"/>
    </edge>
    <edge id=":0/3_19" function="internal">
        <lane id=":0/3_19_0" index="0" speed="13.90" length="17.83" shape="8.25,301.21 5.66,300.84 1.60,298.40 -0.84,294.34 -1.65,288.65"/>
    </edge>
    <edge id=":0/3_20" function="internal">
        <lane id=":0/3_20_0" index="0" speed="13.90" length="2.41" shape="9.70,300.00 10.11,299.18 11.35,298.35"/>
    </edge>
    <edge id=":0/3_10" function="internal">
        <lane id=":0/3_10_0" index="0" speed="13.90" length="5.00" shape="8.25,288.65 8.44,290.01 9.02,290.98 9.99,291.56 11.35,291.75"/>
    </edge>
    <edge id=":0/3_11" function="internal">
        <lane id=":0/3_11_0" index="0" speed="13.90" length="22.70" shape="8.25,288.65 8.25,295.39 8.25,300.00 8.25,304.61 8.25,311.35"/>
        <lane id=":0/3_11_1" index="1" speed="13.90" length="22.70" shape="4.95,288.65 4.95,295.39 4.95,300.00 4.95,304.61 4.95,311.35"/>
        <lane id=":0/3_11_2" index="2" speed="13.90" length="22.70" shape="1.65,288.65 1.65,295.39 1.65,300.00 1.65,304.61 1.65,311.35"/>
    </edge>
    <edge id=":0/3_14" function="internal">
        <lane id=":0/3_14_0" index="0" speed="13.90" length="2.41" shape="1.65,288.65 0.83,289.89 0.00,290.30"/>
    </edge>
    <edge id=":0/3_21" function="internal">
        <lane id=":0/3_21_0" index="0" speed="13.90" length="2.41" shape="0.00,290.30 -0.82,289.89 -1.65,288.65"/>
    </edge>
    <edge id=":0/4_0" function="internal">
        <lane id=":0/4_0_0" index="0" speed="13.90" length="22.70" shape="-8.25,411.35 -8.25,404.61 -8.25,400.00 -8.25,395.39 -8.25,388.65"/>
        <lane id=":0/4_0_1" index="1" speed="13.90" length="22.70" shape="-4.95,411.35 -4.95,404.61 -4.95,400.00 -4.95,395.39 -4.95,388.65"/>
        <lane id=":0/4_0_2" index="2" speed="13.90" length="22.70" shape="-1.65,411.35 -1.65,404.61 -1.65,400.00 -1.65,395.39 -1.65,388.65"/>
    </edge>
    <edge id=":0/4_3" function="internal">
        <lane id=":0/4_3_0" index="0" speed="13.90" length="11.65" shape="-1.65,411.35 -0.84,404.22 1.60,399.12"/>
        <lane id=":0/4_3_1" index="1" speed="13.90" length="11.65" shape="-1.65,411.35 -0.84,405.66 1.60,401.60"/>
    </edge>
    <edge id=":0/4_5" function="internal">
        <lane id=":0/4_5_0" index="0" speed="13.90" length="2.41" shape="-1.65,411.35 -0.83,410.11 -0.00,409.70"/>
    </edge>
    <edge id=":0/4_15" function="internal">
        <lane id=":0/4_15_0" index="0" speed="13.90" length="10.86" shape="1.60,399.12 5.66,396.07 11.35,395.05"/>
    </edge>
    <edge id=":0/4_16" function="internal">
        <lane id=":0/4_16_0" index="0" speed="13.90" length="10.48" shape="1.60,401.60 5.66,399.16 11.35,398.35"/>
    </edge>
    <edge id=":0/4_17" function="internal">
        <lane id=":0/4_17_0" index="0" speed="13.90" length="2.41" shape="-0.00,409.70 0.82,410.11 1.65,411.35"/>
    </edge>
    <edge id=":0/4_6" function="internal">
        <lane id=":0/4_6_0" index="0" speed="13.90" length="5.00" shape="11.35,408.25 9.99,408.44 9.02,409.02 8.44,409.99 8.25,411.35"/>
    </edge>
    <edge id=":0/4_7" function="internal">
        <lane id=":0/4_7_0" index="0" speed="13.90" length="3.13" shape="11.35,404.95 8.25,404.51"/>
        <lane id=":0/4_7_1" index="1" speed="13.90" length="3.13" shape="11.35,401.65 8.25,401.21"/>
    </edge>
    <edge id=":0/4_9" function="internal">
        <lane id=":0/4_9_0" index="0" speed="13.90" length="2.41" shape="11.35,401.65 10.11,400.83 9.70,400.00"/>
    </edge>
    <edge id=":0/4_18" function="internal">
        <lane id=":0/4_18_0" index="0" speed="13.90" length="23.16" shape="8.25,404.51 4.22,403.93 -0.88,400.88 -3.93,395.78 -4.95,388.65"/>
    </edge>
    <edge id=":0/4_19" function="internal">
        <lane id=":0/4_19_0" index="0" speed="13.90" length="17.83" shape="8.25,401.21 5.66,400.84 1.60,398.40 -0.84,394.34 -1.65,388.65"/>
    </edge>
    <edge id=":0/4_20" function="internal">
        <lane id=":0/4_20_0" index="0" speed="13.90" length="2.41" shape="9.70,400.00 10.11,399.18 11.35,398.35"/>
    </edge>
    <edge id=":0/4_10" function="internal">
        <lane id=":0/4_10_0" index="0" speed="13.90" length="5.00" shape="8.25,388.65 8.44,390.01 9.02,390.98 9.99,391.56 11.35,391.75"/>
    </edge>
    <edge id=":0/4_11" function="internal">
        <lane id=":0/4_11_0" index="0" speed="13.90" length="22.70" shape="8.25,388.65 8.25,395.39 8.25,400.00 8.25,404.61 8.25,411.35"/>
        <lane id=":0/4_11_1" index="1" speed="13.90" length="22.70" shape="4.95,388.65 4.95,395.39 4.95,400.00 4.95,404.61 4.95,411.35"/>
        <lane id=":0/4_11_2" index="2" speed="13.90" length="22.70" shape="1.65,388.65 1.65,395.39 1.65,400.00 1.65,404.61 1.65,411.35"/>
    </edge>
    <edge id=":0/4_14" function="internal">
        <lane id=":0/4_14_0" index="0" speed="13.90" length="2.41" shape="1.65,388.65 0.83,389.89 0.00,390.30"/>
    </edge>
    <edge id=":0/4_21" function="internal">
        <lane id=":0/4_21_0" index="0" speed="13.90" length="2.41" shape="0.00,390.30 -0.82,389.89 -1.65,388.65"/>
    </edge>
    <edge id=":0/5_0" function="internal">
        <lane id=":0/5_0_0" index="0" speed="13.90" length="22.70" shape="-8.25,511.35 -8.25,504.61 -8.25,500.00 -8.25,495.39 -8.25,488.65"/>
        <lane id=":0/5_0_1" index="1" speed="13.90" length="22.70" shape="-4.95,511.35 -4.95,504.61 -4.95,500.00 -4.95,495.39 -4.95,488.65"/>
        <lane id=":0/5_0_2" index="2" speed="13.90" length="22.70" shape="-1.65,511.35 -1.65,504.61 -1.65,500.00 -1.65,495.39 -1.65,488.65"/>
    </edge>
    <edge id=":0/5_3" function="internal">
        <lane id=":0/5_3_0" index="0" speed="13.90" length="11.65" shape="-1.65,511.35 -0.84,504.22 1.60,499.12"/>
        <lane id=":0/5_3_1" index="1" speed="13.90" length="11.65" shape="-1.65,511.35 -0.84,505.66 1.60,501.60"/>
    </edge>
    <edge id=":0/5_5" function="internal">
        <lane id=":0/5_5_0" index="0" speed="13.90" length="2.41" shape="-1.65,511.35 -0.83,510.11 -0.00,509.70"/>
    </edge>
    <edge id=":0/5_15" function="internal">
        <lane id=":0/5_15_0" index="0" speed="13.90" length="10.86" shape="1.60,499.12 5.66,496.07 11.35,495.05"/>
    </edge>
    <edge id=":0/5_16" function="internal">
        <lane id=":0/5_16_0" index="0" speed="13.90" length="10.48" shape="1.60,501.60 5.66,499.16 11.35,498.35"/>
    </edge>
    <edge id=":0/5_17" function="internal">
        <lane id=":0/5_17_0" index="0" speed="13.90" length="2.41" shape="-0.00,509.70 0.82,510.11 1.65,511.35"/>
    </edge>
    <edge id=":0/5_6" function="internal">
        <lane id=":0/5_6_0" index="0" speed="13.90" length="5.00" shape="11.35,508.25 9.99,508.44 9.02,509.02 8.44,509.99 8.25,511.35"/>
    </edge>
    <edge id=":0/5_7" function="internal">
        <lane id=":0/5_7_0" index="0" speed="13.90" length="3.13" shape="11.35,504.95 8.25,504.51"/>
        <lane id=":0/5_7_1" index="1" speed="13.90" length="3.13" shape="11.35,501.65 8.25,501.21"/>
    </edge>
    <edge id=":0/5_9" function="internal">
        <lane id=":0/5_9_0" index="0" speed="13.90" length="2.41" shape="11.35,501.65 10.11,500.82 9.70,500.00"/>
    </edge>
    <edge id=":0/5_18" function="internal">
        <lane id=":0/5_18_0" index="0" speed="13.90" length="23.16" shape="8.25,504.51 4.22,503.93 -0.88,500.88 -3.93,495.78 -4.95,488.65"/>
    </edge>
    <edge id=":0/5_19" function="internal">
        <lane id=":0/5_19_0" index="0" speed="13.90" length="17.83" shape="8.25,501.21 5.66,500.84 1.60,498.40 -0.84,494.34 -1.65,488.65"/>
    </edge>
    <edge id=":0/5_20" function="internal">
        <lane id=":0/5_20_0" index="0" speed="13.90" length="2.41" shape="9.70,500.00 10.11,499.18 11.35,498.35"/>
    </edge>
    <edge id=":0/5_10" function="internal">
        <lane id=":0/5_10_0" index="0" speed="13.90" length="5.00" shape="8.25,488.65 8.44,490.01 9.02,490.98 9.99,491.56 11.35,491.75"/>
    </edge>
    <edge id=":0/5_11" function="internal">
        <lane id=":0/5_11_0" index="0" speed="13.90" length="22.70" shape="8.25,488.65 8.25,495.39 8.25,500.00 8.25,504.61 8.25,511.35"/>
        <lane id=":0/5_11_1" index="1" speed="13.90" length="22.70" shape="4.95,488.65 4.95,495.39 4.95,500.00 4.95,504.61 4.95,511.35"/>
        <lane id=":0/5_11_2" index="2" speed="13.90" length="22.70" shape="1.65,488.65 1.65,495.39 1.65,500.00 1.65,504.61 1.65,511.35"/>
    </edge>
    <edge id=":0/5_14" function="internal">
        <lane id=":0/5_14_0" index="0" speed="13.90" length="2.41" shape="1.65,488.65 0.83,489.89 0.00,490.30"/>
    </edge>
    <edge id=":0/5_21" function="internal">
        <lane id=":0/5_21_0" index="0" speed="13.90" length="2.41" shape="0.00,490.30 -0.82,489.89 -1.65,488.65"/>
    </edge>
    <edge id=":0/6_0" function="internal">
        <lane id=":0/6_0_0" index="0" speed="13.90" length="23.87" shape="9.85,608.25 1.93,607.12 -3.73,603.73 -7.12,598.07 -8.25,590.15"/>
        <lane id=":0/6_0_1" index="1" speed="13.90" length="23.87" shape="9.85,604.95 3.37,604.02 -1.25,601.25 -4.03,596.62 -4.95,590.15"/>
        <lane id=":0/6_0_2" index="2" speed="13.90" length="23.87" shape="9.85,601.65 4.82,600.93 1.22,598.77 -0.93,595.18 -1.65,590.15"/>
    </edge>
    <edge id=":0/6_3" function="internal">
        <lane id=":0/6_3_0" index="0" speed="13.90" length="2.41" shape="9.85,601.65 8.61,600.82 8.20,600.00"/>
    </edge>
    <edge id=":0/6_8" function="internal">
        <lane id=":0/6_8_0" index="0" speed="13.90" length="2.41" shape="8.20,600.00 8.61,599.17 9.85,598.35"/>
    </edge>
    <edge id=":0/6_4" function="internal">
        <lane id=":0/6_4_0" index="0" speed="13.90" length="7.90" shape="8.25,590.15 8.35,590.85 8.65,591.35 9.15,591.65 9.85,591.75"/>
        <lane id=":0/6_4_1" index="1" speed="13.90" length="7.90" shape="4.95,590.15 5.26,592.29 6.17,593.83 7.71,594.74 9.85,595.05"/>
        <lane id=":0/6_4_2" index="2" speed="13.90" length="7.90" shape="1.65,590.15 2.16,593.74 3.70,596.30 6.26,597.84 9.85,598.35"/>
    </edge>
    <edge id=":0/6_7" function="internal">
        <lane id=":0/6_7_0" index="0" speed="13.90" length="2.41" shape="1.65,590.15 0.83,591.39 0.00,591.80"/>
    </edge>
    <edge id=":0/6_9" function="internal">
        <lane id=":0/6_9_0" index="0" speed="13.90" length="2.41" shape="0.00,591.80 -0.82,591.39 -1.65,590.15"/>
    </edge>
    <edge id=":1/0_0" function="internal">
        <lane id=":1/0_0_0" index="0" speed="13.90" length="5.00" shape="91.75,11.35 91.56,9.99 90.97,9.02 90.01,8.44 88.65,8.25"/>
    </edge>
    <edge id=":1/0_1" function="internal">
        <lane id=":1/0_1_0" index="0" speed="13.90" length="3.13" shape="95.05,11.35 95.49,8.25"/>
        <lane id=":1/0_1_1" index="1" speed="13.90" length="3.13" shape="98.35,11.35 98.79,8.25"/>
    </edge>
    <edge id=":1/0_3" function="internal">
        <lane id=":1/0_3_0" index="0" speed="13.90" length="2.41" shape="98.35,11.35 99.18,10.11 100.00,9.70"/>
    </edge>
    <edge id=":1/0_15" function="internal">
        <lane id=":1/0_15_0" index="0" speed="13.90" length="23.16" shape="95.49,8.25 96.07,4.22 99.12,-0.88 104.22,-3.93 111.35,-4.95"/>
    </edge>
    <edge id=":1/0_16" function="internal">
        <lane id=":1/0_16_0" index="0" speed="13.90" length="17.83" shape="98.79,8.25 99.16,5.66 101.60,1.60 105.66,-0.84 111.35,-1.65"/>
    </edge>
    <edge id=":1/0_17" function="internal">
        <lane id=":1/0_17_0" index="0" speed="13.90" length="2.41" shape="100.00,9.70 100.83,10.11 101.65,11.35"/>
    </edge>
    <edge id=":1/0_4" function="internal">
        <lane id=":1/0_4_0" index="0" speed="13.90" length="5.00" shape="111.35,8.25 109.99,8.44 109.03,9.02 108.44,9.99 108.25,11.35"/>
    </edge>
    <edge id=":1/0_5" function="internal">
        <lane id=":1/0_5_0" index="0" speed="13.90" length="22.70" shape="111.35,8.25 104.61,8.25 100.00,8.25 95.39,8.25 88.65,8.25"/>
        <lane id=":1/0_5_1" index="1" speed="13.90" length="22.70" shape="111.35,4.95 104.61,4.95 100.00,4.95 95.39,4.95 88.65,4.95"/>
        <lane id=":1/0_5_2" index="2" speed="13.90" length="22.70" shape="111.35,1.65 104.61,1.65 100.00,1.65 95.39,1.65 88.65,1.65"/>
    </edge>
    <edge id=":1/0_8" function="internal">
        <lane id=":1/0_8_0" index="0" speed="13.90" length="2.41" shape="111.35,1.65 110.11,0.83 109.70,0.00"/>
    </edge>
    <edge id=":1/0_18" function="internal">
        <lane id=":1/0_18_0" index="0" speed="13.90" length="2.41" shape="109.70,0.00 110.11,-0.82 111.35,-1.65"/>
    </edge>
    <edge id=":1/0_9" function="internal">
        <lane id=":1/0_9_0" index="0" speed="13.90" length="22.70" shape="88.65,-8.25 95.39,-8.25 100.00,-8.25 104.61,-8.25 111.35,-8.25"/>
        <lane id=":1/0_9_1" index="1" speed="13.90" length="22.70" shape="88.65,-4.95 95.39,-4.95 100.00,-4.95 104.61,-4.95 111.35,-4.95"/>
        <lane id=":1/0_9_2" index="2" speed="13.90" length="22.70" shape="88.65,-1.65 95.39,-1.65 100.00,-1.65 104.61,-1.65 111.35,-1.65"/>
    </edge>
    <edge id=":1/0_12" function="internal">
        <lane id=":1/0_12_0" index="0" speed="13.90" length="11.65" shape="88.65,-1.65 95.78,-0.84 100.88,1.60"/>
        <lane id=":1/0_12_1" index="1" speed="13.90" length="11.65" shape="88.65,-1.65 94.34,-0.84 98.40,1.60"/>
    </edge>
    <edge id=":1/0_14" function="internal">
        <lane id=":1/0_14_0" index="0" speed="13.90" length="2.41" shape="88.65,-1.65 89.89,-0.83 90.30,-0.00"/>
    </edge>
    <edge id=":1/0_19" function="internal">
        <lane id=":1/0_19_0" index="0" speed="13.90" length="10.86" shape="100.88,1.60 103.93,5.66 104.95,11.35"/>
    </edge>
    <edge id=":1/0_20" function="internal">
        <lane id=":1/0_20_0" index="0" speed="13.90" length="10.48" shape="98.40,1.60 100.84,5.66 101.65,11.35"/>
    </edge>
    <edge id=":1/0_21" function="internal">
        <lane id=":1/0_21_0" index="0" speed="13.90" length="2.41" shape="90.30,-0.00 89.89,0.82 88.65,1.65"/>
    </edge>
    <edge id=":1/1_0" function="internal">
        <lane id=":1/1_0_0" index="0" speed="13.90" length="5.00" shape="91.75,111.35 91.56,109.99 90.97,109.03 90.01,108.44 88.65,108.25"/>
    </edge>
    <edge id=":1/1_1" function="internal">
        <lane id=":1/1_1_0" index="0" speed="13.90" length="22.70" shape="91.75,111.35 91.75,104.61 91.75,100.00 91.75,95.39 91.75,88.65"/>
        <lane id=":1/1_1_1" index="1" speed="13.90" length="22.70" shape="95.05,111.35 95.05,104.61 95.05,100.00 95.05,95.39 95.05,88.65"/>
        <lane id=":1/1_1_2" index="2" speed="13.90" length="22.70" shape="98.35,111.35 98.35,104.61 98.35,100.00 98.35,95.39 98.35,88.65"/>
    </edge>
    <edge id=":1/1_4" function="internal">
        <lane id=":1/1_4_0" index="0" speed="13.90" length="6.58" shape="98.35,111.35 99.16,105.66 99.59,104.95"/>
    </edge>
    <edge id=":1/1_5" function="internal">
        <lane id=":1/1_5_0" index="0" speed="13.90" length="2.41" shape="98.35,111.35 99.18,110.11 100.00,109.70"/>
    </edge>
    <edge id=":1/1_20" function="internal">
        <lane id=":1/1_20_0" index="0" speed="13.90" length="14.39" shape="99.59,104.95 101.60,101.60 105.66,99.16 111.35,98.35"/>
    </edge>
    <edge id=":1/1_21" function="internal">
        <lane id=":1/1_21_0" index="0" speed="13.90" length="2.41" shape="100.00,109.70 100.83,110.11 101.65,111.35"/>
    </edge>
    <edge id=":1/1_6" function="internal">
        <lane id=":1/1_6_0" index="0" speed="13.90" length="5.00" shape="111.35,108.25 109.99,108.44 109.03,109.03 108.44,109.99 108.25,111.35"/>
    </edge>
    <edge id=":1/1_7" function="internal">
        <lane id=":1/1_7_0" index="0" speed="13.90" length="22.70" shape="111.35,104.95 104.61,104.95 100.00,104.95 95.39,104.95 88.65,104.95"/>
    </edge>
    <edge id=":1/1_8" function="internal">
        <lane id=":1/1_8_0" index="0" speed="13.90" length="3.13" shape="111.35,101.65 108.25,101.21"/>
    </edge>
    <edge id=":1/1_9" function="internal">
        <lane id=":1/1_9_0" index="0" speed="13.90" length="2.41" shape="111.35,101.65 110.11,100.82 109.70,100.00"/>
    </edge>
    <edge id=":1/1_22" function="internal">
        <lane id=":1/1_22_0" index="0" speed="13.90" length="17.83" shape="108.25,101.21 105.66,100.84 101.60,98.40 99.16,94.34 98.35,88.65"/>
    </edge>
    <edge id=":1/1_23" function="internal">
        <lane id=":1/1_23_0" index="0" speed="13.90" length="2.41" shape="109.70,100.00 110.11,99.17 111.35,98.35"/>
    </edge>
    <edge id=":1/1_10" function="internal">
        <lane id=":1/1_10_0" index="0" speed="13.90" length="5.00" shape="108.25,88.65 108.44,90.01 109.03,90.97 109.99,91.56 111.35,91.75"/>
    </edge>
    <edge id=":1/1_11" function="internal">
        <lane id=":1/1_11_0" index="0" speed="13.90" length="22.70" shape="108.25,88.65 108.25,95.39 108.25,100.00 108.25,104.61 108.25,111.35"/>
        <lane id=":1/1_11_1" index="1" speed="13.90" length="22.70" shape="104.95,88.65 104.95,95.39 104.95,100.00 104.95,104.61 104.95,111.35"/>
        <lane id=":1/1_11_2" index="2" speed="13.90" length="22.70" shape="101.65,88.65 101.65,95.39 101.65,100.00 101.65,104.61 101.65,111.35"/>
    </edge>
    <edge id=":1/1_14" function="internal">
        <lane id=":1/1_14_0" index="0" speed="13.90" length="6.58" shape="101.65,88.65 100.84,94.34 100.41,95.05"/>
    </edge>
    <edge id=":1/1_15" function="internal">
        <lane id=":1/1_15_0" index="0" speed="13.90" length="2.41" shape="101.65,88.65 100.82,89.89 100.00,90.30"/>
    </edge>
    <edge id=":1/1_24" function="internal">
        <lane id=":1/1_24_0" index="0" speed="13.90" length="14.39" shape="100.41,95.05 98.40,98.40 94.34,100.84 88.65,101.65"/>
    </edge>
    <edge id=":1/1_25" function="internal">
        <lane id=":1/1_25_0" index="0" speed="13.90" length="2.41" shape="100.00,90.30 99.17,89.89 98.35,88.65"/>
    </edge>
    <edge id=":1/1_16" function="internal">
        <lane id=":1/1_16_0" index="0" speed="13.90" length="5.00" shape="88.65,91.75 90.01,91.56 90.97,90.97 91.56,90.01 91.75,88.65"/>