<additional>
	<e3Detector file="/home/aime/Downloads/veins-veins-vadd/examples/veins/Netlane.xml" freq="30" id="e3_0/1_0/0to0/1">
		<detEntry lane="1/0to0/0_0" pos="0.1"/>
		<detEntry lane="1/0to0/0_1" pos="0.1"/>
		<detEntry lane="1/0to0/0_2" pos="0.1"/>
		<detEntry lane="0/1to0/0_0" pos="0.1"/>
		<detEntry lane="0/1to0/0_1" pos="0.1"/>
		<detEntry lane="0/1to0/0_2" pos="0.1"/>
		<detExit lane="0/0to0/1_0" pos="-.1"/>
		<detExit lane="0/0to0/1_1" pos="-.1"/>
		<detExit lane="0/0to0/1_2" pos="-.1"/>
	</e3Detector>
	<e3Detector file="/home/aime/Downloads/veins-veins-vadd/examples/veins/Netlane.xml" freq="30" id="e3_0/1_0/2to0/1">
		<detEntry lane="0/2to0/1_0" pos="0.1"/>
		<detEntry lane="0/2to0/1_1" pos="0.1"/>
		<detEntry lane="0/2to0/1_2" pos="0.1"/>
		<detExit lane="0/2to0/1_0" pos="-.1"/>
		<detExit lane="0/2to0/1_1" pos="-.1"/>
		<detExit lane="0/2to0/1_2" pos="-.1"/>
	</e3Detector>
	<e3Detector file="/home/aime/Downloads/veins-veins-vadd/examples/veins/Netlane.xml" freq="30" id="e3_0/1_1/1to0/1">
		<detEntry lane="1/1to0/1_0" pos="0.1"/>
		<detEntry lane="1/1to0/1_1" pos="0.1"/>
		<detEntry lane="1/1to0/1_2" pos="0.1"/>
		<detExit lane="1/1to0/1_0" pos="-.1"/>
		<detExit lane="1/1to0/1_1" pos="-.1"/>
		<detExit lane="1/1to0/1_2" pos="-.1"/>
	</e3Detector>
	<e3Detector file="/home/aime/Downloads/veins-veins-vadd/examples/veins/Netlane.xml" freq="30" id="e3_1/0_0/0to1/0">
		<detEntry lane="1/0to0/0_0" pos="0.1"/>
		<detEntry lane="1/0to0/0_1" pos="0.1"/>
		<detEntry lane="1/0to0/0_2" pos="0.1"/>
		<detEntry lane="0/1to0/0_0" pos="0.1"/>
		<detEntry lane="0/1to0/0_1" pos="0.1"/>
		<detEntry lane="0/1to0/0_2" pos="0.1"/>
		<detExit lane="0/0to1/0_0" pos="-.1"/>
		<detExit lane="0/0to1/0_1" pos="-.1"/>
		<detExit lane="0/0to1/0_2" pos="-.1"/>
	</e3Detector>
	<e3Detector file="/home/aime/Downloads/veins-veins-vadd/examples/veins/Netlane.xml" freq="30" id="e3_1/0_1/1to1/0">
		<detEntry lane="1/1to1/0_0" pos="0.1"/>
		<detEntry lane="1/1to1/0_1" pos="0.1"/>
		<detEntry lane="1/1to1/0_2" pos="0.1"/>
		<detExit lane="1/1to1/0_0" pos="-.1"/>
		<detExit lane="1/1to1/0_1" pos="-.1"/>
		<detExit lane="1/1to1/0_2" pos="-.1"/>
	</e3Detector>
	<e3Detector file="/home/aime/Downloads/veins-veins-vadd/examples/veins/Netlane.xml" freq="30" id="e3_1/0_2/0to1/0">
		<detEntry lane="2/0to1/0_0" pos="0.1"/>
		<detEntry lane="2/0to1/0_1" pos="0.1"/>
		<detEntry lane="2/0to1/0_2" pos="0.1"/>
		<detExit lane="2/0to1/0_0" pos="-.1"/>
		<detExit lane="2/0to1/0_1" pos="-.1"/>
		<detExit lane="2/0to1/0_2" pos="-.1"/>
	</e3Detector>
	<e3Detector file="/home/aime/Downloads/veins-veins-vadd/examples/veins/Netlane.xml" freq="30" id="e3_0/2_0/1to0/2">
		<detEntry lane="0/1to0/2_0" pos="0.1"/>
		<detEntry lane="0/1to0/2_1" pos="0.1"/>
		<detEntry lane="0/1to0/2_2" pos="0.1"/>
		<detExit lane="0/1to0/2_0" pos="-.1"/>
		<detExit lane="0/1to0/2_1" pos="-.1"/>
		<detExit lane="0/1to0/2_2" pos="-.1"/>
	</e3Detector>
	<e3Detector file="/home/aime/Downloads/veins-veins-vadd/examples/veins/Netlane.xml" freq="30" id="e3_0/2_0/3to0/2">
		<detEntry lane="0/3to0/2_0" pos="0.1"/>
		<detEntry lane="0/3to0/2_1" pos="0.1"/>
		<detEntry lane="0/3to0/2_2" pos="0.1"/>
		<detExit lane="0/3to0/2_0" pos="-.1"/>
		<detExit lane="0/3to0/2_1" pos="-.1"/>
		<detExit lane="0/3to0/2_2" pos="-.1"/>
	</e3Detector>
	<e3Detector file="/home/aime/Downloads/veins-veins-vadd/examples/veins/Netlane.xml" freq="30" id="e3_0/2_1/2to0/2">
		<detEntry lane="1/2to0/2_0" pos="0.1"/>
		<detEntry lane="1/2to0/2_1" pos="0.1"/>
		<detEntry lane="1/2to0/2_2" pos="0.1"/>
		<detExit lane="1/2to0/2_0" pos="-.1"/>
		<detExit lane="1/2to0/2_1" pos="-.1"/>
		<detExit lane="1/2to0/2_2" pos="-.1"/>
	</e3Detector>
	<e3Detector file="/home/aime/Downloads/veins-veins-vadd/examples/veins/Netlane.xml" freq="30" id="e3_1/1_0/1to1/1">
		<detEntry lane="0/1to1/1_0" pos="0.1"/>
		<detEntry lane="0/1to1/1_1" pos="0.1"/>
		<detEntry lane="0/1to1/1_2" pos="0.1"/>
		<detExit lane="0/1to1/1_0" pos="-.1"/>
		<detExit lane="0/1to1/1_1" pos="-.1"/>
		<detExit lane="0/1to1/1_2" pos="-.1"/>
	</e3Detector>
	<e3Detector file="/home/aime/Downloads/veins-veins-vadd/examples/veins/Netlane.xml" freq="30" id="e3_1/1_1/0to1/1">
		<detEntry lane="1/0to1/1_0" pos="0.1"/>
		<detEntry lane="1/0to1/1_1" pos="0.1"/>
		<detEntry lane="1/0to1/1_2" pos="0.1"/>
		<detExit lane="1/0to1/1_0" pos="-.1"/>
		<detExit lane="1/0to1/1_1" pos="-.1"/>
		<detExit lane="1/0to1/1_2" pos="-.1"/>
	</e3Detector>
	<e3Detector file="/home/aime/Downloads/veins-veins-vadd/examples/veins/Netlane.xml" freq="30" id="e3_1/1_1/2to1/1">
		<detEntry lane="1/2to1/1_0" pos="0.1"/>
		<detEntry lane="1/2to1/1_1" pos="0.1"/>
		<detEntry lane="1/2to1/1_2" pos="0.1"/>
		<detExit lane="1/2to1/1_0" pos="-.1"/>
		<detExit lane="1/2to1/1_1" pos="-.1"/>
		<detExit lane="1/2to1/1_2" pos="-.1"/>
	</e3Detector>
	<e3Detector file="/home/aime/Downloads/veins-veins-vadd/examples/veins/Netlane.xml" freq="30" id="e3_1/1_2/1to1/1">
		<detEntry lane="2/1to1/1_0" pos="0.1"/>
		<detEntry lane="2/1to1/1_1" pos="0.1"/>
		<detEntry lane="2/1to1/1_2" pos="0.1"/>
		<detExit lane="2/1to1/1_0" pos="-.1"/>
		<detExit lane="2/1to1/1_1" pos="-.1"/>
		<detExit lane="2/1to1/1_2" pos="-.1"/>
	</e3Detector>
	<e3Detector file="/home/aime/Downloads/veins-veins-vadd/examples/veins/Netlane.xml" freq="30" id="e3_0/3_0/2to0/3">
		<detEntry lane="0/2to0/3_0" pos="0.1"/>
		<detEntry lane="0/2to0/3_1" pos="0.1"/>
		<detEntry lane="0/2to0/3_2" pos="0.1"/>
		<detExit lane="0/2to0/3_0" pos="-.1"/>
		<detExit lane="0/2to0/3_1" pos="-.1"/>
		<detExit lane="0/2to0/3_2" pos="-.1"/>
	</e3Detector>
	<e3Detector file="/home/aime/Downloads/veins-veins-vadd/examples/veins/Netlane.xml" freq="30" id="e3_0/3_0/4to0/3">
		<detEntry lane="0/4to0/3_0" pos="0.1"/>
		<detEntry lane="0/4to0/3_1" pos="0.1"/>
		<detEntry lane="0/4to0/3_2" pos="0.1"/>
		<detExit lane="0/4to0/3_0" pos="-.1"/>
		<detExit lane="0/4to0/3_1" pos="-.1"/>
		<detExit lane="0/4to0/3_2" pos="-.1"/>
	</e3Detector>
	<e3Detector file="/home/aime/Downloads/veins-veins-vadd/examples/veins/Netlane.xml" freq="30" id="e3_0/3_1/3to0/3">
		<detEntry lane="1/3to0/3_0" pos="0.1"/>
		<detEntry lane="1/3to0/3_1" pos="0.1"/>
		<detEntry lane="1/3to0/3_2" pos="0.1"/>
		<detExit lane="1/3to0/3_0" pos="-.1"/>
		<detExit lane="1/3to0/3_1" pos="-.1"/>
		<detExit lane="1/3to0/3_2" pos="-.1"/>
	</e3Detector>
	<e3Detector file="/home/aime/Downloads/veins-veins-vadd/examples/veins/Netlane.xml" freq="30" id="e3_1/2_0/2to1/2">
		<detEntry lane="0/2to1/2_0" pos="0.1"/>
		<detEntry lane="0/2to1/2_1" pos="0.1"/>
		<detEntry lane="0/2to1/2_2" pos="0.1"/>
		<detExit lane="0/2to1/2_0" pos="-.1"/>
		<detExit lane="0/2to1/2_1" pos="-.1"/>
		<detExit lane="0/2to1/2_2" pos="-.1"/>
	</e3Detector>
	<e3Detector file="/home/aime/Downloads/veins-veins-vadd/examples/veins/Netlane.xml" freq="30" id="e3_1/2_1/1to1/2">
		<detEntry lane="1/1to1/2_0" pos="0.1"/>
		<detEntry lane="1/1to1/2_1" pos="0.1"/>
		<detEntry lane="1/1to1/2_2" pos="0.1"/>
		<detExit lane="1/1to1/2_0" pos="-.1"/>
		<detExit lane="1/1to1/2_1" pos="-.1"/>
		<detExit lane="1/1to1/2_2" pos="-.1"/>
	</e3Detector>
	<e3Detector file="/home/aime/Downloads/veins-veins-vadd/examples/veins/Netlane.xml" freq="30" id="e3_1/2_1/3to1/2">
		<detEntry lane="1/3to1/2_0" pos="0.1"/>
		<detEntry lane="1/3to1/2_1" pos="0.1"/>
		<detEntry lane="1/3to1/2_2" pos="0.1"/>
		<detExit lane="1/3to1/2_0" pos="-.1"/>
		<detExit lane="1/3to1/2_1" pos="-.1"/>
		<detExit lane="1/3to1/2_2" pos="-.1"/>
	</e3Detector>
	<e3Detector file="/home/aime/Downloads/veins-veins-vadd/examples/veins/Netlane.xml" freq="30" id="e3_1/2_2/2to1/2">
		<detEntry lane="2/2to1/2_0" pos="0.1"/>
		<detEntry lane="2/2to1/2_1" pos="0.1"/>
		<detEntry lane="2/2to1/2_2" pos="0.1"/>
		<detExit lane="2/2to1/2_0" pos="-.1"/>
		<detExit lane="2/2to1/2_1" pos="-.1"/>
		<detExit lane="2/2to1/2_2" pos="-.1"/>
	</e3Detector>
	<e3Detector file="/home/aime/Downloads/veins-veins-vadd/examples/veins/Netlane.xml" freq="30" id="e3_0/4_0/3to0/4">
		<detEntry lane="0/3to0/4_0" pos="0.1"/>
		<detEntry lane="0/3to0/4_1" pos="0.1"/>
		<detEntry lane="0/3to0/4_2" pos="0.1"/>
		<detExit lane="0/3to0/4_0" pos="-.1"/>
		<detExit lane="0/3to0/4_1" pos="-.1"/>
		<detExit lane="0/3to0/4_2" pos="-.1"/>
	</e3Detector>
	<e3Detector file="/home/aime/Downloads/veins-veins-vadd/examples/veins/Netlane.xml" freq="30" id="e3_0/4_0/5to0/4">
		<detEntry lane="0/5to0/4_0" pos="0.1"/>
		<detEntry lane="0/5to0/4_1" pos="0.1"/>
		<detEntry lane="0/5to0/4_2" pos="0.1"/>
		<detExit lane="0/5to0/4_0" pos="-.1"/>
		<detExit lane="0/5to0/4_1" pos="-.1"/>
		<detExit lane="0/5to0/4_2" pos="-.1"/>
	</e3Detector>
	<e3Detector file="/home/aime/Downloads/veins-veins-vadd/examples/veins/Netlane.xml" freq="30" id="e3_0/4_1/4to0/4">
		<detEntry lane="1/4to0/4_0" pos="0.1"/>
		<detEntry lane="1/4to0/4_1" pos="0.1"/>
		<detEntry lane="1/4to0/4_2" pos="0.1"/>
		<detExit lane="1/4to0/4_0" pos="-.1"/>
		<detExit lane="1/4to0/4_1" pos="-.1"/>
		<detExit lane="1/4to0/4_2" pos="-.1"/>
	</e3Detector>
	<e3Detector file="/home/aime/Downloads/veins-veins-vadd/examples/veins/Netlane.xml" freq="30" id="e3_1/3_0/3to1/3">
		<detEntry lane="0/3to1/3_0" pos="0.1"/>
		<detEntry lane="0/3to1/3_1" pos="0.1"/>
		<detEntry lane="0/3to1/3_2" pos="0.1"/>
		<detExit lane="0/3to1/3_0" pos="-.1"/>
		<detExit lane="0/3to1/3_1" pos="-.1"/>
		<detExit lane="0/3to1/3_2" pos="-.1"/>
	</e3Detector>
	<e3Detector file="/home/aime/Downloads/veins-veins-vadd/examples/veins/Netlane.xml" freq="30" id="e3_1/3_1/2to1/3">
		<detEntry lane="1/2to1/3_0" pos="0.1"/>
		<detEntry lane="1/2to1/3_1" pos="0.1"/>
		<detEntry lane="1/2to1/3_2" pos="0.1"/>
		<detExit lane="1/2to1/3_0" pos="-.1"/>
		<detExit lane="1/2to1/3_1" pos="-.1"/>
		<detExit lane="1/2to1/3_2" pos="-.1"/>
	</e3Detector>
	<e3Detector file="/home/aime/Downloads/veins-veins-vadd/examples/veins/Netlane.xml" freq="30" id="e3_1/3_1/4to1/3">
		<detEntry lane="1/4to1/3_0" pos="0.1"/>
		<detEntry lane="1/4to1/3_1" pos="0.1"/>
		<detEntry lane="1/4to1/3_2" pos="0.1"/>
		<detExit lane="1/4to1/3_0" pos="-.1"/>
		<detExit lane="1/4to1/3_1" pos="-.1"/>
		<detExit lane="1/4to1/3_2" pos="-.1"/>
	</e3Detector>
	<e3Detector file="/home/aime/Downloads/veins-veins-vadd/examples/veins/Netlane.xml" freq="30" id="e3_1/3_2/3to1/3">
		<detEntry lane="2/3to1/3_0" pos="0.1"/>
		<detEntry lane="2/3to1/3_1" pos="0.1"/>
		<detEntry lane="2/3to1/3_2" pos="0.1"/>
		<detExit lane="2/3to1/3_0" pos="-.1"/>
		<detExit lane="2/3to1/3_1" pos="-.1"/>
		<detExit lane="2/3to1/3_2" pos="-.1"/>
	</e3Detector>
	<e3Detector file="/home/aime/Downloads/veins-veins-vadd/examples/veins/Netlane.xml" freq="30" id="e3_0/5_0/4to0/5">
		<detEntry lane="0/4to0/5_0" pos="0.1"/>
		<detEntry lane="0/4to0/5_1" pos="0.1"/>
		<detEntry lane="0/4to0/5_2" pos="0.1"/>
		<detExit lane="0/4to0/5_0" pos="-.1"/>
		<detExit lane="0/4to0/5_1" pos="-.1"/>
		<detExit lane="0/4to0/5_2" pos="-.1"/>
	</e3Detector>
	<e3Detector file="/home/aime/Downloads/veins-veins-vadd/examples/veins/Netlane.xml" freq="30" id="e3_0/5_0/6to0/5">
		<detEntry lane="0/6to0/5_0" pos="0.1"/>
		<detEntry lane="0/6to0/5_1" pos="0.1"/>
		<detEntry lane="0/6to0/5_2" pos="0.1"/>
		<detExit lane="0/6to0/5_0" pos="-.1"/>
		<detExit lane="0/6to0/5_1" pos="-.1"/>
		<detExit lane="0/6to0/5_2" pos="-.1"/>
	</e3Detector>
	<e3Detector file="/home/aime/Downloads/veins-veins-vadd/examples/veins/Netlane.xml" freq="30" id="e3_0/5_1/5to0/5">
		<detEntry lane="1/5to0/5_0" pos="0.1"/>
		<detEntry lane="1/5to0/5_1" pos="0.1"/>
		<detEntry lane="1/5to0/5_2" pos="0.1"/>
		<detExit lane="1/5to0/5_0" pos="-.1"/>
		<detExit lane="1/5to0/5_1" pos="-.1"/>
		<detExit lane="1/5to0/5_2" pos="-.1"/>
	</e3Detector>
	<e3Detector file="/home/aime/Downloads/veins-veins-vadd/examples/veins/Netlane.xml" freq="30" id="e3_1/4_0/4to1/4">
		<detEntry lane="0/4to1/4_0" pos="0.1"/>
		<detEntry lane="0/4to1/4_1" pos="0.1"/>
		<detEntry lane="0/4to1/4_2" pos="0.1"/>
		<detExit lane="0/4to1/4_0" pos="-.1"/>
		<detExit lane="0/4to1/4_1" pos="-.1"/>
		<detExit lane="0/4to1/4_2" pos="-.1"/>
	</e3Detector>
	<e3Detector file="/home/aime/Downloads/veins-veins-vadd/examples/veins/Netlane.xml" freq="30" id="e3_1/4_1/3to1/4">
		<detEntry lane="1/3to1/4_0" pos="0.1"/>
		<detEntry lane="1/3to1/4_1" pos="0.1"/>
		<detEntry lane="1/3to1/4_2" pos="0.1"/>
		<detExit lane="1/3to1/4_0" pos="-.1"/>
		<detExit lane="1/3to1/4_1" pos="-.1"/>
		<detExit lane="1/3to1/4_2" pos="-.1"/>
	</e3Detector>
	<e3Detector file="/home/aime/Downloads/veins-veins-vadd/examples/veins/Netlane.xml" freq="30" id="e3_1/4_1/5to1/4">
		<detEntry lane="1/5to1/4_0" pos="0.1"/>
		<detEntry lane="1/5to1/4_1" pos="0.1"/>
		<detEntry lane="1/5to1/4_2" pos="0.1"/>
		<detExit lane="1/5to1/4_0" pos="-.1"/>
		<detExit lane="1/5to1/4_1" pos="-.1"/>
		<detExit lane="1/5to1/4_2" pos="-.1"/>
	</e3Detector>
	<e3Detector file="/home/aime/Downloads/veins-veins-vadd/examples/veins/Netlane.xml" freq="30" id="e3_1/4_2/4to1/4">
		<detEntry lane="2/4to1/4_0" pos="0.1"/>
		<detEntry lane="2/4to1/4_1" pos="0.1"/>
		<detEntry lane="2/4to1/4_2" pos="0.1"/>
		<detExit lane="2/4to1/4_0" pos="-.1"/>
		<detExit lane="2/4to1/4_1" pos="-.1"/>
		<detExit lane="2/4to1/4_2" pos="-.1"/>
	</e3Detector>
	<e3Detector file="/home/aime/Downloads/veins-veins-vadd/examples/veins/Netlane.xml" freq="30" id="e3_0/6_0/5to0/6">
		<detEntry lane="0/5to0/6_0" pos="0.1"/>
		<detEntry lane="0/5to0/6_1" pos="0.1"/>
		<detEntry lane="0/5to0/6_2" pos="0.1"/>
		<detExit lane="0/5to0/6_0" pos="-.1"/>
		<detExit lane="0/5to0/6_1" pos="-.1"/>
		<detExit lane="0/5to0/6_2" pos="-.1"/>
	</e3Detector>
	<e3Detector file="/home/aime/Downloads/veins-veins-vadd/examples/veins/Netlane.xml" freq="30" id="e3_0/6_0/7to0/6">
		<detEntry lane="0/7to0/6_0" pos="0.1"/>
		<detEntry lane="0/7to0/6_1" pos="0.1"/>
		<detEntry lane="0/7to0/6_2" pos="0.1"/>
		<detExit lane="0/7to0/6_0" pos="-.1"/>
		<detExit lane="0/7to0/6_1" pos="-.1"/>
		<detExit lane="0/7to0/6_2" pos="-.1"/>
	</e3Detector>
	<e3Detector file="/home/aime/Downloads/veins-veins-vadd/examples/veins/Netlane.xml" freq="30" id="e3_0/6_1/6to0/6">
		<detEntry lane="1/6to0/6_0" pos="0.1"/>
		<detEntry lane="1/6to0/6_1" pos="0.1"/>
		<detEntry lane="1/6to0/6_2" pos="0.1"/>
		<detExit lane="1/6to0/6_0" pos="-.1"/>
		<detExit lane="1/6to0/6_1" pos="-.1"/>
		<detExit lane="1/6to0/6_2" pos="-.1"/>
	</e3Detector>
	<e3Detector file="/home/aime/Downloads/veins-veins-vadd/examples/veins/Netlane.xml" freq="30" id="e3_1/5_0/5to1/5">
		<detEntry lane="0/5to1/5_0" pos="0.1"/>
		<detEntry lane="0/5to1/5_1" pos="0.1"/>
		<detEntry lane="0/5to1/5_2" pos="0.1"/>
		<detExit lane="0/5to1/5_0" pos="-.1"/>
		<detExit lane="0/5to1/5_1" pos="-.1"/>
		<detExit lane="0/5to1/5_2" pos="-.1"/>
	</e3Detector>
	<e3Detector file="/home/aime/Downloads/veins-veins-vadd/examples/veins/Netlane.xml" freq="30" id="e3_1/5_1/4to1/5">
		<detEntry lane="1/4to1/5_0" pos="0.1"/>
		<detEntry lane="1/4to1/5_1" pos="0.1"/>
		<detEntry lane="1/4to1/5_2" pos="0.1"/>
		<detExit lane="1/4to1/5_0" pos="-.1"/>
		<detExit lane="1/4to1/5_1" pos="-.1"/>
		<detExit lane="1/4to1/5_2" pos="-.1"/>
	</e3Detector>
	<e3Detector file="/home/aime/Downloads/veins-veins-vadd/examples/veins/Netlane.xml" freq="30" id="e3_1/5_1/6to1/5">
		<detEntry lane="1/6to1/5_0" pos="0.1"/>
		<detEntry lane="1/6to1/5_1" pos="0.1"/>
		<detEntry lane="1/6to1/5_2" pos="0.1"/>
		<detExit lane="1/6to1/5_0" pos="-.1"/>
		<detExit lane="1/6to1/5_1" pos="-.1"/>
		<detExit lane="1/6to1/5_2" pos="-.1"/>
	</e3Detector>
	<e3Detector file="/home/aime/Downloads/veins-veins-vadd/examples/veins/Netlane.xml" freq="30" id="e3_1/5_2/5to1/5">
		<detEntry lane="2/5to1/5_0" pos="0.1"/>
		<detEntry lane="2/5to1/5_1" pos="0.1"/>
		<detEntry lane="2/5to1/5_2" pos="0.1"/>
		<detExit lane="2/5to1/5_0" pos="-.1"/>
		<detExit lane="2/5to1/5_1" pos="-.1"/>
		<detExit lane="2/5to1/5_2" pos="-.1"/>
	</e3Detector>
	<e3Detector file="/home/aime/Downloads/veins-veins-vadd/examples/veins/Netlane.xml" freq="30" id="e3_0/7_0/6to0/7">
		<detEntry lane="0/6to0/7_0" pos="0.1"/>
		<detEntry lane="0/6to0/7_1" pos="0.1"/>
		<detEntry lane="0/6to0/7_2" pos="0.1"/>
		<detExit lane="0/6to0/7_0" pos="-.1"/>
		<detExit lane="0/6to0/7_1" pos="-.1"/>
		<detExit lane="0/6to0/7_2" pos="-.1"/>
	</e3Detector>
	<e3Detector file="/home/aime/Downloads/veins-veins-vadd/examples/veins/Netlane.xml" freq="30" id="e3_0/7_0/8to0/7">
		<detEntry lane="1/8to0/8_0" pos="0.1"/>
		<detEntry lane="1/8to0/8_1" pos="0.1"/>
		<detEntry lane="1/8to0/8_2" pos="0.1"/>
		<detEntry lane="0/7to0/8_0" pos="0.1"/>
		<detEntry lane="0/7to0/8_1" pos="0.1"/>
		<detEntry lane="0/7to0/8_2" pos="0.1"/>
		<detExit lane="0/8to0/7_0" pos="-.1"/>
		<detExit lane="0/8to0/7_1" pos="-.1"/>
		<detExit lane="0/8to0/7_2" pos="-.1"/>
	</e3Detector>
	<e3Detector file="/home/aime/Downloads/veins-veins-vadd/examples/veins/Netlane.xml" freq="30" id="e3_0/7_1/7to0/7">
		<detEntry lane="1/7to0/7_0" pos="0.1"/>
		<detEntry lane="1/7to0/7_1" pos="0.1"/>
		<detEntry lane="1/7to0/7_2" pos="0.1"/>
		<detExit lane="1/7to0/7_0" pos="-.1"/>
		<detExit lane="1/7to0/7_1" pos="-.1"/>
		<detExit lane="1/7to0/7_2" pos="-.1"/>
	</e3Detector>
	<e3Detector file="/home/aime/Downloads/veins-veins-vadd/examples/veins/Netlane.xml" freq="30" id="e3_1/6_0/6to1/6">
		<detEntry lane="0/6to1/6_0" pos="0.1"/>
		<detEntry lane="0/6to1/6_1" pos="0.1"/>
		<detEntry lane="0/6to1/6_2" pos="0.1"/>
		<detExit lane="0/6to1/6_0" pos="-.1"/>
		<detExit lane="0/6to1/6_1" pos="-.1"/>
		<detExit lane="0/6to1/6_2" pos="-.1"/>
	</e3Detector>
	<e3Detector file="/home/aime/Downloads/veins-veins-vadd/examples/veins/Netlane.xml" freq="30" id="e3_1/6_1/5to1/6">
		<detEntry lane="1/5to1/6_0" pos="0.1"/>
		<detEntry lane="1/5to1/6_1" pos="0.1"/>
		<detEntry lane="1/5to1/6_2" pos="0.1"/>
		<detExit lane="1/5to1/6_0" pos="-.1"/>
		<detExit lane="1/5to1/6_1" pos="-.1"/>
		<detExit lane="1/5to1/6_2" pos="-.1"/>
	</e3Detector>
	<e3Detector file="/home/aime/Downloads/veins-veins-vadd/examples/veins/Netlane.xml" freq="30" id="e3_1/6_1/7to1/6">
		<detEntry lane="1/7to1/6_0" pos="0.1"/>
		<detEntry lane="1/7to1/6_1" pos="0.1"/>
		<detEntry lane="1/7to1/6_2" pos="0.1"/>
		<detExit lane="1/7to1/6_0" pos="-.1"/>
		<detExit lane="1/7to1/6_1" pos="-.1"/>
		<detExit lane="1/7to1/6_2" pos="-.1"/>
	</e3Detector>
	<e3Detector file="/home/aime/Downloads/veins-veins-vadd/examples/veins/Netlane.xml" freq="30" id="e3_1/6_2/6to1/6">
		<detEntry lane="2/6to1/6_0" pos="0.1"/>
		<detEntry lane="2/6to1/6_1" pos="0.1"/>
		<detEntry lane="2/6to1/6_2" pos="0.1"/>
		<detExit lane="2/6to1/6_0" pos="-.1"/>
		<detExit lane="2/6to1/6_1" pos="-.1"/>
		<detExit lane="2/6to1/6_2" pos="-.1"/>
	</e3Detector>
	<e3Detector file="/home/aime/Downloads/veins-veins-vadd/examples/veins/Netlane.xml" freq="30" id="e3_1/7_0/7to1/7">
		<detEntry lane="0/7to1/7_0" pos="0.1"/>
		<detEntry lane="0/7to1/7_1" pos="0.1"/>
		<detEntry lane="0/7to1/7_2" pos="0.1"/>
		<detExit lane="0/7to1/7_0" pos="-.1"/>
		<detExit lane="0/7to1/7_1" pos="-.1"/>
		<detExit lane="0/7to1/7_2" pos="-.1"/>
	</e3Detector>
	<e3Detector file="/home/aime/Downloads/veins-veins-vadd/examples/veins/Netlane.xml" freq="30" id="e3_1/7_1/6to1/7">
		<detEntry lane="1/6to1/7_0" pos="0.1"/>
		<detEntry lane="1/6to1/7_1" pos="0.1"/>
		<detEntry lane="1/6to1/7_2" pos="0.1"/>
		<detExit lane="1/6to1/7_0" pos="-.1"/>
		<detExit lane="1/6to1/7_1" pos="-.1"/>
		<detExit lane="1/6to1/7_2" pos="-.1"/>
	</e3Detector>
	<e3Detector file="/home/aime/Downloads/veins-veins-vadd/examples/veins/Netlane.xml" freq="30" id="e3_1/7_1/8to1/7">
		<detEntry lane="1/8to1/7_0" pos="0.1"/>
		<detEntry lane="1/8to1/7_1" pos="0.1"/>
		<detEntry lane="1/8to1/7_2" pos="0.1"/>
		<detExit lane="1/8to1/7_0" pos="-.1"/>
		<detExit lane="1/8to1/7_1" pos="-.1"/>
		<detExit lane="1/8to1/7_2" pos="-.1"/>
	</e3Detector>
	<e3Detector file="/home/aime/Downloads/veins-veins-vadd/examples/veins/Netlane.xml" freq="30" id="e3_1/7_2/7to1/7">
		<detEntry lane="2/7to1/7_0" pos="0.1"/>
		<detEntry lane="2/7to1/7_1" pos="0.1"/>
		<detEntry lane="2/7to1/7_2" pos="0.1"/>
		<detExit lane="2/7to1/7_0" pos="-.1"/>
		<detExit lane="2/7to1/7_1" pos="-.1"/>
		<detExit lane="2/7to1/7_2" pos="-.1"/>
	</e3Detector>
	<e3Detector file="/home/aime/Downloads/veins-veins-vadd/examples/veins/Netlane.xml" freq="30" id="e3_1/8_0/8to1/8">
		<detEntry lane="1/8to0/8_0" pos="0.1"/>
		<detEntry lane="1/8to0/8_1" pos="0.1"/>
		<detEntry lane="1/8to0/8_2" pos="0.1"/>
		<detEntry lane="0/7to0/8_0" pos="0.1"/>
		<detEntry lane="0/7to0/8_1" pos="0.1"/>
		<detEntry lane="0/7to0/8_2" pos="0.1"/>
		<detExit lane="0/8to1/8_0" pos="-.1"/>
		<detExit lane="0/8to1/8_1" pos="-.1"/>
		<detExit lane="0/8to1/8_2" pos="-.1"/>
	</e3Detector>
	<e3Detector file="/home/aime/Downloads/veins-veins-vadd/examples/veins/Netlane.xml" freq="30" id="e3_1/8_1/7to1/8">
		<detEntry lane="1/7to1/8_0" pos="0.1"/>
		<detEntry lane="1/7to1/8_1" pos="0.1"/>
		<detEntry lane="1/7to1/8_2" pos="0.1"/>
		<detExit lane="1/7to1/8_0" pos="-.1"/>
		<detExit lane="1/7to1/8_1" pos="-.1"/>
		<detExit lane="1/7to1/8_2" pos="-.1"/>
	</e3Detector>
	<e3Detector file="/home/aime/Downloads/veins-veins-vadd/examples/veins/Netlane.xml" freq="30" id="e3_1/8_2/8to1/8">
		<detEntry lane="2/8to1/8_0" pos="0.1"/>
		<detEntry lane="2/8to1/8_1" pos="0.1"/>
		<detEntry lane="2/8to1/8_2" pos="0.1"/>
		<detExit lane="2/8to1/8_0" pos="-.1"/>
		<detExit lane="2/8to1/8_1" pos="-.1"/>
		<detExit lane="2/8to1/8_2" pos="-.1"/>
	</e3Detector>
	<e3Detector file="/home/aime/Downloads/veins-veins-vadd/examples/veins/Netlane.xml" freq="30" id="e3_2/0_1/0to2/0">
		<detEntry lane="1/0to2/0_0" pos="0.1"/>
		<detEntry lane="1/0to2/0_1" pos="0.1"/>
		<detEntry lane="1/0to2/0_2" pos="0.1"/>
		<detExit lane="1/0to2/0_0" pos="-.1"/>
		<detExit lane="1/0to2/0_1" pos="-.1"/>
		<detExit lane="1/0to2/0_2" pos="-.1"/>
	</e3Detector>
	<e3Detector file="/home/aime/Downloads/veins-veins-vadd/examples/veins/Netlane.xml" freq="30" id="e3_2/0_2/1to2/0">
		<detEntry lane="2/1to2/0_0" pos="0.1"/>
		<detEntry lane="2/1to2/0_1" pos="0.1"/>
		<detEntry lane="2/1to2/0_2" pos="0.1"/>
		<detExit lane="2/1to2/0_0" pos="-.1"/>
		<detExit lane="2/1to2/0_1" pos="-.1"/>
		<detExit lane="2/1to2/0_2" pos="-.1"/>
	</e3Detector>
	<e3Detector file="/home/aime/Downloads/veins-veins-vadd/examples/veins/Netlane.xml" freq="30" id="e3_2/0_3/0to2/0">
		<detEntry lane="3/0to2/0_0" pos="0.1"/>
		<detEntry lane="3/0to2/0_1" pos="0.1"/>
		<detEntry lane="3/0to2/0_2" pos="0.1"/>
		<detExit lane="3/0to2/0_0" pos="-.1"/>
		<detExit lane="3/0to2/0_1" pos="-.1"/>
		<detExit lane="3/0to2/0_2" pos="-.1"/>
	</e3Detector>
	<e3Detector file="/home/aime/Downloads/veins-veins-vadd/examples/veins/Netlane.xml" freq="30" id="e3_2/1_1/1to2/1">
		<detEntry lane="1/1to2/1_0" pos="0.1"/>
		<detEntry lane="1/1to2/1_1" pos="0.1"/>
		<detEntry lane="1/1to2/1_2" pos="0.1"/>
		<detExit lane="1/1to2/1_0" pos="-.1"/>
		<detExit lane="1/1to2/1_1" pos="-.1"/>
		<detExit lane="1/1to2/1_2" pos="-.1"/>
	</e3Detector>
	<e3Detector file="/home/aime/Downloads/veins-veins-vadd/examples/veins/Netlane.xml" freq="30" id="e3_2/1_2/0to2/1">
		<detEntry lane="2/0to2/1_0" pos="0.1"/>
		<detEntry lane="2/0to2/1_1" pos="0.1"/>
		<detEntry lane="2/0to2/1_2" pos="0.1"/>
		<detExit lane="2/0to2/1_0" pos="-.1"/>
		<detExit lane="2/0to2/1_1" pos="-.1"/>
		<detExit lane="2/0to2/1_2" pos="-.1"/>
	</e3Detector>
	<e3Detector file="/home/aime/Downloads/veins-veins-vadd/examples/veins/Netlane.xml" freq="30" id="e3_2/1_2/2to2/1">
		<detEntry lane="2/2to2/1_0" pos="0.1"/>
		<detEntry lane="2/2to2/1_1" pos="0.1"/>
		<detEntry lane="2/2to2/1_2" pos="0.1"/>
		<detExit lane="2/2to2/1_0" pos="-.1"/>
		<detExit lane="2/2to2/1_1" pos="-.1"/>
		<detExit lane="2/2to2/1_2" pos="-.1"/>
	</e3Detector>
	<e3Detector file="/home/aime/Downloads/veins-veins-vadd/examples/veins/Netlane.xml" freq="30" id="e3_2/1_3/1to2/1">
		<detEntry lane="3/1to2/1_0" pos="0.1"/>
		<detEntry lane="3/1to2/1_1" pos="0.1"/>
		<detEntry lane="3/1to2/1_2" pos="0.1"/>
		<detExit lane="3/1to2/1_0" pos="-.1"/>
		<detExit lane="3/1to2/1_1" pos="-.1"/>
		<detExit lane="3/1to2/1_2" pos="-.1"/>
	</e3Detector>
	<e3Detector file="/home/aime/Downloads/veins-veins-vadd/examples/veins/Netlane.xml" freq="30" id="e3_2/2_1/2to2/2">
		<detEntry lane="1/2to2/2_0" pos="0.1"/>
		<detEntry lane="1/2to2/2_1" pos="0.1"/>
		<detEntry lane="1/2to2/2_2" pos="0.1"/>
		<detExit lane="1/2to2/2_0" pos="-.1"/>
		<detExit lane="1/2to2/2_1" pos="-.1"/>
		<detExit lane="1/2to2/2_2" pos="-.1"/>
	</e3Detector>
	<e3Detector file="/home/aime/Downloads/veins-veins-vadd/examples/veins/Netlane.xml" freq="30" id="e3_2/2_2/1to2/2">
		<detEntry lane="2/1to2/2_0" pos="0.1"/>
		<detEntry lane="2/1to2/2_1" pos="0.1"/>
		<detEntry lane="2/1to2/2_2" pos="0.1"/>
		<detExit lane="2/1to2/2_0" pos="-.1"/>
		<detExit lane="2/1to2/2_1" pos="-.1"/>
		<detExit lane="2/1to2/2_2" pos="-.1"/>
	</e3Detector>
	<e3Detector file="/home/aime/Downloads/veins-veins-vadd/examples/veins/Netlane.xml" freq="30" id="e3_2/2_2/3to2/2">
		<detEntry lane="2/3to2/2_0" pos="0.1"/>
		<detEntry lane="2/3to2/2_1" pos="0.1"/>
		<detEntry lane="2/3to2/2_2" pos="0.1"/>
		<detExit lane="2/3to2/2_0" pos="-.1"/>
		<detExit lane="2/3to2/2_1" pos="-.1"/>
		<detExit lane="2/3to2/2_2" pos="-.1"/>
	</e3Detector>
	<e3Detector file="/home/aime/Downloads/veins-veins-vadd/examples/veins/Netlane.xml" freq="30" id="e3_2/2_3/2to2/2">
		<detEntry lane="3/2to2/2_0" pos="0.1"/>
		<detEntry lane="3/2to2/2_1" pos="0.1"/>
		<detEntry lane="3/2to2/2_2" pos="0.1"/>
		<detExit lane="3/2to2/2_0" pos="-.1"/>
		<detExit lane="3/2to2/2_1" pos="-.1"/>
		<detExit lane="3/2to2/2_2" pos="-.1"/>
	</e3Detector>
	<e3Detector file="/home/aime/Downloads/veins-veins-vadd/examples/veins/Netlane.xml" freq="30" id="e3_2/3_1/3to2/3">
		<detEntry lane="1/3to2/3_0" pos="0.1"/>
		<detEntry lane="1/3to2/3_1" pos="0.1"/>
		<detEntry lane="1/3to2/3_2" pos="0.1"/>
		<detExit lane="1/3to2/3_0" pos="-.1"/>
		<detExit lane="1/3to2/3_1" pos="-.1"/>
		<detExit lane="1/3to2/3_2" pos="-.1"/>
	</e3Detector>
	<e3Detector file="/home/aime/Downloads/veins-veins-vadd/examples/veins/Netlane.xml" freq="30" id="e3_2/3_2/2to2/3">
		<detEntry lane="2/2to2/3_0" pos="0.1"/>
		<detEntry lane="2/2to2/3_1" pos="0.1"/>
		<detEntry lane="2/2to2/3_2" pos="0.1"/>
		<detExit lane="2/2to2/3_0" pos="-.1"/>
		<detExit lane="2/2to2/3_1" pos="-.1"/>
		<detExit lane="2/2to2/3_2" pos="-.1"/>
	</e3Detector>
	<e3Detector file="/home/aime/Downloads/veins-veins-vadd/examples/veins/Netlane.xml" freq="30" id="e3_2/3_2/4to2/3">
		<detEntry lane="2/4to2/3_0" pos="0.1"/>
		<detEntry lane="2/4to2/3_1" pos="0.1"/>
		<detEntry lane="2/4to2/3_2" pos="0.1"/>
		<detExit lane="2/4to2/3_0" pos="-.1"/>
		<detExit lane="2/4to2/3_1" pos="-.1"/>
		<detExit lane="2/4to2/3_2" pos="-.1"/>
	</e3Detector>
	<e3Detector file="/home/aime/Downloads/veins-veins-vadd/examples/veins/Netlane.xml" freq="30" id="e3_2/3_3/3to2/3">
		<detEntry lane="3/3to2/3_0" pos="0.1"/>
		<detEntry lane="3/3to2/3_1" pos="0.1"/>
		<detEntry lane="3/3to2/3_2" pos="0.1"/>
		<detExit lane="3/3to2/3_0" pos="-.1"/>
		<detExit lane="3/3to2/3_1" pos="-.1"/>
		<detExit lane="3/3to2/3_2" pos="-.1"/>
	</e3Detector>
	<e3Detector file="/home/aime/Downloads/veins-veins-vadd/examples/veins/Netlane.xml" freq="30" id="e3_2/4_1/4to2/4">
		<detEntry lane="1/4to2/4_0" pos="0.1"/>
		<detEntry lane="1/4to2/4_1" pos="0.1"/>
		<detEntry lane="1/4to2/4_2" pos="0.1"/>
		<detExit lane="1/4to2/4_0" pos="-.1"/>
		<detExit lane="1/4to2/4_1" pos="-.1"/>
		<detExit lane="1/4to2/4_2" pos="-.1"/>
	</e3Detector>
	<e3Detector file="/home/aime/Downloads/veins-veins-vadd/examples/veins/Netlane.xml" freq="30" id="e3_2/4_2/3to2/4">
		<detEntry lane="2/3to2/4_0" pos="0.1"/>
		<detEntry lane="2/3to2/4_1" pos="0.1"/>
		<detEntry lane="2/3to2/4_2" pos="0.1"/>
		<detExit lane="2/3to2/4_0" pos="-.1"/>
		<detExit lane="2/3to2/4_1" pos="-.1"/>
		<detExit lane="2/3to2/4_2" pos="-.1"/>
	</e3Detector>
	<e3Detector file="/home/aime/Downloads/veins-veins-vadd/examples/veins/Netlane.xml" freq="30" id="e3_2/4_2/5to2/4">
		<detEntry lane="2/5to2/4_0" pos="0.1"/>
		<detEntry lane="2/5to2/4_1" pos="0.1"/>
		<detEntry lane="2/5to2/4_2" pos="0.1"/>
		<detExit lane="2/5to2/4_0" pos="-.1"/>
		<detExit lane="2/5to2/4_1" pos="-.1"/>
		<detExit lane="2/5to2/4_2" pos="-.1"/>
	</e3Detector>
	<e3Detector file="/home/aime/Downloads/veins-veins-vadd/examples/veins/Netlane.xml" freq="30" id="e3_2/4_3/4to2/4">
		<detEntry lane="3/4to2/4_0" pos="0.1"/>
		<detEntry lane="3/4to2/4_1" pos="0.1"/>
		<detEntry lane="3/4to2/4_2" pos="0.1"/>
		<detExit lane="3/4to2/4_0" pos="-.1"/>
		<detExit lane="3/4to2/4_1" pos="-.1"/>
		<detExit lane="3/4to2/4_2" pos="-.1"/>
	</e3Detector>
	<e3Detector file="/home/aime/Downloads/veins-veins-vadd/examples/veins/Netlane.xml" freq="30" id="e3_2/5_1/5to2/5">
		<detEntry lane="1/5to2/5_0" pos="0.1"/>
		<detEntry lane="1/5to2/5_1" pos="0.1"/>
		<detEntry lane="1/5to2/5_2" pos="0.1"/>
		<detExit lane="1/5to2/5_0" pos="-.1"/>
		<detExit lane="1/5to2/5_1" pos="-.1"/>
		<detExit lane="1/5to2/5_2" pos="-.1"/>
	</e3Detector>
	<e3Detector file="/home/aime/Downloads/veins-veins-vadd/examples/veins/Netlane.xml" freq="30" id="e3_2/5_2/4to2/5">
		<detEntry lane="2/4to2/5_0" pos="0.1"/>
		<detEntry lane="2/4to2/5_1" pos="0.1"/>
		<detEntry lane="2/4to2/5_2" pos="0.1"/>
		<detExit lane="2/4to2/5_0" pos="-.1"/>
		<detExit lane="2/4to2/5_1" pos="-.1"/>
		<detExit lane="2/4to2/5_2" pos="-.1"/>
	</e3Detector>
	<e3Detector file="/home/aime/Downloads/veins-veins-vadd/examples/veins/Netlane.xml" freq="30" id="e3_2/5_2/6to2/5">
		<detEntry lane="2/6to2/5_0" pos="0.1"/>
		<detEntry lane="2/6to2/5_1" pos="0.1"/>
		<detEntry lane="2/6to2/5_2" pos="0.1"/>
		<detExit lane="2/6to2/5_0" pos="-.1"/>
		<detExit lane="2/6to2/5_1" pos="-.1"/>
		<detExit lane="2/6to2/5_2" pos="-.1"/>
	</e3Detector>
	<e3Detector file="/home/aime/Downloads/veins-veins-vadd/examples/veins/Netlane.xml" freq="30" id="e3_2/5_3/5to2/5">